@<TRIPOS>MOLECULE
NTA
   19    18     1     0     0
SMALL
bcc


@<TRIPOS>ATOM
      1 O1          -3.7800    -4.8760   -20.2610 o          1 NTA      -0.896967
      2 O3          -2.4500    -7.1680   -20.7530 o          1 NTA      -0.896967
      3 O5          -3.5520    -7.1920   -23.2560 o          1 NTA      -0.896967
      4 N1          -2.2480    -5.0920   -22.4140 n3         1 NTA      -0.679600
      5 O7          -3.1690    -6.8650   -25.4270 o          1 NTA      -0.896967
      6 O9          -0.2770    -7.2800   -20.3010 o          1 NTA      -0.896967
      7 O10         -3.2210    -2.7650   -19.8330 o          1 NTA      -0.896967
      8 C2          -1.2250    -6.8010   -20.9090 c          1 NTA       0.908600
      9 C3          -3.1780    -3.7640   -20.5370 c          1 NTA       0.908600
     10 C4          -3.0790    -6.5180   -24.2600 c          1 NTA       0.908600
     11 C5          -2.4230    -3.7260   -21.8610 c3         1 NTA       0.072800
     12 C6          -2.4220    -5.1830   -23.8920 c3         1 NTA       0.072800
     13 C7          -0.9870    -5.7410   -21.9610 c3         1 NTA       0.072800
     14 H52         -2.9850    -3.1220   -22.5740 h1         1 NTA       0.019200
     15 H53         -1.4430    -3.2750   -21.7020 h1         1 NTA       0.019200
     16 H62         -1.4470    -5.1150   -24.3750 h1         1 NTA       0.019200
     17 H63         -3.0530    -4.3630   -24.2330 h1         1 NTA       0.019200
     18 H72         -0.5050    -6.2050   -22.8210 h1         1 NTA       0.019200
     19 H73         -0.3240    -4.9790   -21.5520 h1         1 NTA       0.019200
@<TRIPOS>BOND
     1     1     9 1   
     2     2     8 1   
     3     3    10 1   
     4     4    11 1   
     5     4    12 1   
     6     4    13 1   
     7     5    10 1   
     8     6     8 1   
     9     7     9 1   
    10     8    13 1   
    11     9    11 1   
    12    10    12 1   
    13    11    14 1   
    14    11    15 1   
    15    12    16 1   
    16    12    17 1   
    17    13    18 1   
    18    13    19 1   
@<TRIPOS>SUBSTRUCTURE
     1 NTA         1 TEMP              0 ****  ****    0 ROOT
