####################################################################### 
# 
# This file contains crystal structure data downloaded from the 
# Cambridge Structural Database (CSD) hosted by the Cambridge 
# Crystallographic Data Centre (CCDC).
# 
# Full information about CCDC data access policies and citation 
# guidelines are available at http://www.ccdc.cam.ac.uk/access/V1 
# 
# Audit and citation data items may have been added by the CCDC. 
# Please retain this information to preserve the provenance of 
# this file and to allow appropriate attribution of the data. 
# 
#######################################################################

data_as220319
_audit_block_doi                 10.5517/ccdc.csd.cc21ydp3
_database_code_depnum_ccdc_archive 'CCDC 1905095'
loop_
_citation_id
_citation_doi
_citation_year
1 10.1016/j.poly.2019.114168 2020
loop_
_audit_author_name
_audit_author_address
'Artur Sikorski'
;University of Gdansk
Poland
;
_audit_update_record             
;
2019-03-22 deposited with the CCDC.	2022-03-11 downloaded from the CCDC.
;
_audit_creation_method           SHELXL-2017/1
_shelx_SHELXL_version_number     2017/1
_journal_coeditor_?tes           
; ?
;
_iucr_compatibility_tag          ACTA95
loop_
_publ_author_foot?te
;
?
;
;
?
;
;
to whom correspondence should be addressed
;
;
?
;
;
?
;
;
?
;
;
?
;
_chemical_name_systematic        ?
_chemical_name_common            ?
_chemical_melting_point          ?
_chemical_formula_moiety         ?
_chemical_formula_sum            'C4 H9 Co N O6'
_chemical_formula_weight         226.05

loop_
_atom_type_symbol
_atom_type_description
_atom_type_scat_dispersion_real
_atom_type_scat_dispersion_imag
_atom_type_scat_source
C C 0.0033 0.0016 'International Tables Vol C Tables 4.2.6.8 and 6.1.1.4'
H H 0.0000 0.0000 'International Tables Vol C Tables 4.2.6.8 and 6.1.1.4'
N N 0.0061 0.0033 'International Tables Vol C Tables 4.2.6.8 and 6.1.1.4'
O O 0.0106 0.0060 'International Tables Vol C Tables 4.2.6.8 and 6.1.1.4'
Co Co 0.3494 0.9721 'International Tables Vol C Tables 4.2.6.8 and 6.1.1.4'

_space_group_crystal_system      orthorhombic
_space_group_IT_number           29
_space_group_name_H-M_alt        'P c a 21'
_space_group_name_Hall           'P 2c -2ac'

_shelx_space_group_comment       
;
The symmetry employed for this shelxl refinement is uniquely defined
by the following loop, which should always be used as a source of
symmetry information in preference to the above space-group names.
They are only intended as comments.
;

loop_
_space_group_symop_operation_xyz
'x, y, z'
'-x, -y, z+1/2'
'x+1/2, -y, z'
'-x+1/2, y, z+1/2'

_cell_length_a                   14.3400(4)
_cell_length_b                   5.23065(13)
_cell_length_c                   9.7778(3)
_cell_angle_alpha                90
_cell_angle_beta                 90
_cell_angle_gamma                90
_cell_volume                     733.41(3)
_cell_formula_units_Z            4
_cell_measurement_temperature    295(2)
_cell_measurement_reflns_used    14944
_cell_measurement_theta_min      3.524
_cell_measurement_theta_max      29.000

_exptl_crystal_description       block
_exptl_crystal_colour            pink
_exptl_crystal_density_meas      ?
_exptl_crystal_density_method    ?
_exptl_crystal_density_diffrn    2.047
_exptl_crystal_F_000             460
_exptl_transmission_factor_min   ?
_exptl_transmission_factor_max   ?
_exptl_crystal_size_max          0.410
_exptl_crystal_size_mid          0.320
_exptl_crystal_size_min          0.280
_exptl_absorpt_coefficient_mu    2.332
_shelx_estimated_absorpt_T_min   0.448
_shelx_estimated_absorpt_T_max   0.561
_exptl_absorpt_correction_type   multi-scan
_exptl_absorpt_correction_T_min  0.960
_exptl_absorpt_correction_T_max  0.996

_exptl_absorpt_process_details   
;
CrysAlis RED, Version 1.171.32.15 (Oxford Diffraction Ltd.,
2008)
Empirical absorption correction using spherical harmonics,
implemented in SCALE3 ABSPACK scaling algorithm.
;
_exptl_absorpt_special_details   ?
_diffrn_ambient_temperature      295(2)
_diffrn_radiation_wavelength     0.71073
_diffrn_radiation_type           MoK\a
_diffrn_radiation_source         'fine-focus sealed tube'
_diffrn_radiation_monochromator  graphite
_diffrn_measurement_device_type  'Oxford Diffraction Ruby CCD'
_diffrn_measurement_method       \w
_diffrn_detector_area_resol_mean 10.4002
_diffrn_reflns_number            14944
_diffrn_reflns_av_unetI/netI     0.0199
_diffrn_reflns_av_R_equivalents  0.0342
_diffrn_reflns_limit_h_min       -19
_diffrn_reflns_limit_h_max       19
_diffrn_reflns_limit_k_min       -7
_diffrn_reflns_limit_k_max       7
_diffrn_reflns_limit_l_min       -12
_diffrn_reflns_limit_l_max       12
_diffrn_reflns_theta_min         3.524
_diffrn_reflns_theta_max         29.000
_diffrn_reflns_theta_full        29.000
_diffrn_measured_fraction_theta_max 0.990
_diffrn_measured_fraction_theta_full 0.990
_diffrn_reflns_Laue_measured_fraction_max 0.990
_diffrn_reflns_Laue_measured_fraction_full 0.990
_diffrn_reflns_point_group_measured_fraction_max 0.969
_diffrn_reflns_point_group_measured_fraction_full 0.969
_reflns_number_total             1885
_reflns_number_gt                1789
_reflns_threshold_expression     'I > 2\s(I)'
_reflns_Friedel_coverage         0.850
_reflns_Friedel_fraction_max     0.944
_reflns_Friedel_fraction_full    0.944

_reflns_special_details          
;
 Reflections were merged by SHELXL according to the crystal
 class for the calculation of statistics and refinement.
 
 _reflns_Friedel_fraction is defined as the number of unique
 Friedel pairs measured divided by the number that would be
 possible theoretically, ignoring centric projections and
 systematic absences.
;

_computing_data_collection       
'CrysAlis CCD,Version 1.171.32.15 (Oxford Diffraction Ltd., 2008)'
_computing_cell_refinement       
'CrysAlis RED,Version 1.171.32.15 (Oxford Diffraction Ltd., 2008)'
_computing_data_reduction        
'CrysAlis RED,Version 1.171.32.15 (Oxford Diffraction Ltd., 2008)'
_computing_structure_solution    'SHELXS-97 (Sheldrick, 2008)'
_computing_structure_refinement  'SHELXL-2017/1 (Sheldrick, 2017)'
_computing_molecular_graphics    'ORTEPII (Johnson, 1976)'
_computing_publication_material  'SHELXL97 and PLATON (Spek, 2003)'
_refine_special_details          
; 
 Refinement of F^2^ against ALL reflections.  The weighted R-factor wR and 
 goodness of fit S are based on F^2^, conventional R-factors R are based 
 on F, with F set to zero for negative F^2^. The threshold expression of 
 F^2^ > 2sigma(F^2^) is used only for calculating R-factors(gt) etc. and is 
 not relevant to the choice of reflections for refinement.  R-factors based 
 on F^2^ are statistically about twice as large as those based on F, and R- 
 factors based on ALL data will be even larger. 
;
_refine_ls_structure_factor_coef Fsqd
_refine_ls_matrix_type           full
_refine_ls_weighting_scheme      calc
_refine_ls_weighting_details     
'w=1/[\s^2^(Fo^2^)+(0.0259P)^2^+0.0469P] where P=(Fo^2^+2Fc^2^)/3'
_atom_sites_solution_primary     ?
_atom_sites_solution_secondary   ?
_atom_sites_solution_hydrogens   mixed
_refine_ls_hydrogen_treatment    mixed
_refine_ls_extinction_method     none
_refine_ls_extinction_coef       .
_refine_ls_abs_structure_details 
;
 Flack x determined using 790 quotients [(I+)-(I-)]/[(I+)+(I-)]
 (Parsons, Flack and Wagner, Acta Cryst. B69 (2013) 249-259).
;
_refine_ls_abs_structure_Flack   -0.011(7)
_chemical_absolute_configuration ?
_refine_ls_number_reflns         1885
_refine_ls_number_parameters     124
_refine_ls_number_restraints     7
_refine_ls_R_factor_all          0.0218
_refine_ls_R_factor_gt           0.0197
_refine_ls_wR_factor_ref         0.0463
_refine_ls_wR_factor_gt          0.0456
_refine_ls_goodness_of_fit_ref   1.095
_refine_ls_restrained_S_all      1.102
_refine_ls_shift/su_max          0.000
_refine_ls_shift/su_mean         0.000

loop_
_atom_site_label
_atom_site_type_symbol
_atom_site_fract_x
_atom_site_fract_y
_atom_site_fract_z
_atom_site_U_iso_or_equiv
_atom_site_adp_type
_atom_site_occupancy
_atom_site_site_symmetry_order
_atom_site_calc_flag
_atom_site_refinement_flags_posn
_atom_site_refinement_flags_adp
_atom_site_refinement_flags_occupancy
_atom_site_disorder_assembly
_atom_site_disorder_group
C1B C -0.43371(15) -0.5962(4) -0.5999(3) 0.0190(5) Uani 1 1 d . . . . .
Co1A Co -0.43571(2) -0.62152(5) -0.30842(4) 0.01879(10) Uani 1 1 d . . . . .
O1 O -0.34422(13) -0.3314(3) -0.2583(2) 0.0283(4) Uani 1 1 d . . . . .
C1A C -0.26800(16) -0.3300(4) -0.3222(3) 0.0238(5) Uani 1 1 d . . . . .
O1W O -0.39466(15) -0.8576(4) -0.1435(2) 0.0310(4) Uani 1 1 d D . . . .
H1WB H -0.429(2) -0.867(7) -0.079(3) 0.047 Uiso 1 1 d D U . . .
H1WA H -0.382(2) -1.011(5) -0.157(3) 0.047 Uiso 1 1 d D U . . .
N1 N -0.32046(13) -0.7412(4) -0.4280(2) 0.0196(4) Uani 1 1 d . . . . .
H1 H -0.296(2) -0.871(6) -0.403(4) 0.029 Uiso 1 1 d . U . . .
C2B C -0.35712(17) -0.7868(5) -0.5659(3) 0.0230(5) Uani 1 1 d . . . . .
H2BA H -0.381761 -0.959157 -0.571544 0.028 Uiso 1 1 calc R U . . .
H2BB H -0.307033 -0.771114 -0.632038 0.028 Uiso 1 1 calc R U . . .
O2W O -0.53003(13) -0.9222(4) -0.3683(2) 0.0269(4) Uani 1 1 d D . . . .
H2WB H -0.527(2) -1.056(5) -0.329(4) 0.040 Uiso 1 1 d D U . . .
H2WA H -0.5837(17) -0.880(6) -0.353(4) 0.040 Uiso 1 1 d D U . . .
O2 O -0.46725(13) -0.4628(3) -0.50605(18) 0.0248(4) Uani 1 1 d . . . . .
C2A C -0.24732(18) -0.5424(5) -0.4229(3) 0.0279(5) Uani 1 1 d . . . . .
H2AA H -0.240205 -0.468879 -0.513415 0.033 Uiso 1 1 calc R U . . .
H2AB H -0.188542 -0.621853 -0.398379 0.033 Uiso 1 1 calc R U . . .
O3 O -0.20911(12) -0.1590(3) -0.3109(4) 0.0381(4) Uani 1 1 d . . . . .
O4 O -0.45866(14) -0.5898(3) -0.72314(19) 0.0246(4) Uani 1 1 d . . . . .

loop_
_atom_site_aniso_label
_atom_site_aniso_U_11
_atom_site_aniso_U_22
_atom_site_aniso_U_33
_atom_site_aniso_U_23
_atom_site_aniso_U_13
_atom_site_aniso_U_12
C1B 0.0179(11) 0.0205(12) 0.0186(14) 0.0003(9) -0.0002(8) -0.0012(8)
Co1A 0.01944(14) 0.01962(15) 0.01729(15) -0.00108(14) 0.00047(15) 0.00244(10)
O1 0.0264(9) 0.0236(8) 0.0347(10) -0.0085(7) 0.0052(7) -0.0008(7)
C1A 0.0236(10) 0.0207(10) 0.0272(14) 0.0037(12) -0.0049(11) 0.0039(8)
O1W 0.0367(12) 0.0349(11) 0.0215(10) 0.0036(8) 0.0031(8) 0.0054(9)
N1 0.0211(9) 0.0186(9) 0.0190(9) 0.0008(8) -0.0030(8) 0.0053(8)
C2B 0.0242(11) 0.0259(12) 0.0189(11) -0.0056(10) -0.0020(9) 0.0069(10)
O2W 0.0230(9) 0.0247(9) 0.0332(10) 0.0034(8) 0.0000(8) 0.0025(8)
O2 0.0288(9) 0.0278(9) 0.0180(8) -0.0009(7) -0.0005(7) 0.0103(8)
C2A 0.0220(11) 0.0333(12) 0.0284(13) -0.0071(10) 0.0017(10) -0.0028(10)
O3 0.0247(8) 0.0271(8) 0.0624(13) -0.0062(12) -0.0010(13) -0.0032(7)
O4 0.0258(9) 0.0295(9) 0.0184(9) 0.0008(7) -0.0041(7) 0.0059(7)

_geom_special_details            
;
 All esds (except the esd in the dihedral angle between two l.s. planes)
 are estimated using the full covariance matrix.  The cell esds are taken
 into account individually in the estimation of esds in distances, angles
 and torsion angles; correlations between esds in cell parameters are only
 used when they are defined by crystal symmetry.  An approximate (isotropic)
 treatment of cell esds is used for estimating esds involving l.s. planes.
;

loop_
_geom_bond_atom_site_label_1
_geom_bond_atom_site_label_2
_geom_bond_distance
_geom_bond_site_symmetry_2
_geom_bond_publ_flag
C1B O2 1.249(3) . ?
C1B O4 1.258(3) . ?
C1B C2B 1.520(3) . ?
Co1A O4 2.0521(19) 2_445 ?
Co1A O1 2.0650(18) . ?
Co1A O1W 2.114(2) . ?
Co1A N1 2.119(2) . ?
Co1A O2 2.1513(18) . ?
Co1A O2W 2.1554(19) . ?
O1 C1A 1.259(3) . ?
C1A O3 1.235(3) . ?
C1A C2A 1.514(4) . ?
O1W H1WB 0.80(2) . ?
O1W H1WA 0.83(2) . ?
N1 C2B 1.467(3) . ?
N1 C2A 1.478(3) . ?
N1 H1 0.80(3) . ?
C2B H2BA 0.9700 . ?
C2B H2BB 0.9700 . ?
O2W H2WB 0.80(2) . ?
O2W H2WA 0.81(2) . ?
C2A H2AA 0.9700 . ?
C2A H2AB 0.9700 . ?

loop_
_geom_angle_atom_site_label_1
_geom_angle_atom_site_label_2
_geom_angle_atom_site_label_3
_geom_angle
_geom_angle_site_symmetry_1
_geom_angle_site_symmetry_3
_geom_angle_publ_flag
O2 C1B O4 125.4(2) . . ?
O2 C1B C2B 119.0(2) . . ?
O4 C1B C2B 115.6(2) . . ?
O4 Co1A O1 88.66(8) 2_445 . ?
O4 Co1A O1W 102.14(8) 2_445 . ?
O1 Co1A O1W 94.09(9) . . ?
O4 Co1A N1 163.54(8) 2_445 . ?
O1 Co1A N1 81.52(7) . . ?
O1W Co1A N1 91.77(8) . . ?
O4 Co1A O2 90.11(7) 2_445 . ?
O1 Co1A O2 93.62(8) . . ?
O1W Co1A O2 165.66(7) . . ?
N1 Co1A O2 77.44(8) . . ?
O4 Co1A O2W 92.30(8) 2_445 . ?
O1 Co1A O2W 177.95(8) . . ?
O1W Co1A O2W 87.47(8) . . ?
N1 Co1A O2W 97.12(8) . . ?
O2 Co1A O2W 84.58(7) . . ?
C1A O1 Co1A 115.97(16) . . ?
O3 C1A O1 123.6(3) . . ?
O3 C1A C2A 117.1(2) . . ?
O1 C1A C2A 119.3(2) . . ?
Co1A O1W H1WB 118(3) . . ?
Co1A O1W H1WA 120(2) . . ?
H1WB O1W H1WA 101(3) . . ?
C2B N1 C2A 113.5(2) . . ?
C2B N1 Co1A 106.00(14) . . ?
C2A N1 Co1A 109.10(15) . . ?
C2B N1 H1 108(3) . . ?
C2A N1 H1 106(2) . . ?
Co1A N1 H1 115(3) . . ?
N1 C2B C1B 110.7(2) . . ?
N1 C2B H2BA 109.5 . . ?
C1B C2B H2BA 109.5 . . ?
N1 C2B H2BB 109.5 . . ?
C1B C2B H2BB 109.5 . . ?
H2BA C2B H2BB 108.1 . . ?
Co1A O2W H2WB 118(3) . . ?
Co1A O2W H2WA 110(2) . . ?
H2WB O2W H2WA 101(3) . . ?
C1B O2 Co1A 111.28(16) . . ?
N1 C2A C1A 113.5(2) . . ?
N1 C2A H2AA 108.9 . . ?
C1A C2A H2AA 108.9 . . ?
N1 C2A H2AB 108.9 . . ?
C1A C2A H2AB 108.9 . . ?
H2AA C2A H2AB 107.7 . . ?
C1B O4 Co1A 127.87(16) . 2_444 ?

loop_
_geom_torsion_atom_site_label_1
_geom_torsion_atom_site_label_2
_geom_torsion_atom_site_label_3
_geom_torsion_atom_site_label_4
_geom_torsion
_geom_torsion_site_symmetry_1
_geom_torsion_site_symmetry_2
_geom_torsion_site_symmetry_3
_geom_torsion_site_symmetry_4
_geom_torsion_publ_flag
Co1A O1 C1A O3 174.6(2) . . . . ?
Co1A O1 C1A C2A -3.0(3) . . . . ?
C2A N1 C2B C1B -84.5(2) . . . . ?
Co1A N1 C2B C1B 35.3(2) . . . . ?
O2 C1B C2B N1 -12.5(3) . . . . ?
O4 C1B C2B N1 168.2(2) . . . . ?
O4 C1B O2 Co1A 161.6(2) . . . . ?
C2B C1B O2 Co1A -17.6(3) . . . . ?
C2B N1 C2A C1A 125.5(2) . . . . ?
Co1A N1 C2A C1A 7.5(3) . . . . ?
O3 C1A C2A N1 178.9(2) . . . . ?
O1 C1A C2A N1 -3.4(4) . . . . ?
O2 C1B O4 Co1A -3.4(4) . . . 2_444 ?
C2B C1B O4 Co1A 175.80(16) . . . 2_444 ?

_refine_diff_density_max         0.224
_refine_diff_density_min         -0.322
_refine_diff_density_rms         0.067

_shelx_res_file                  
;
TITL AS_200818 in Pca2(1)
    as20.res
    created by SHELXL-2017/1 at 21:45:21 on 22-Mar-2019
CELL 0.71073  14.339970   5.230653   9.777834  90.0000  90.0000  90.0000
ZERR    4.00   0.000368   0.000131   0.000285   0.0000   0.0000   0.0000
LATT -1
SYMM -x,-y, z+1/2
SYMM  x+1/2,-y, z
SYMM -x+1/2, y, z+1/2
SFAC C H N O Co
UNIT 16 36 4 24 4
acta 58.001
omit -2 58.001
temp 20
size 0.41 0.32 0.28
L.S. 10
BOND $h
conf
FMAP 2
PLAN 20

DFIX O1w H1wa 0.86
DFIX O1w H1wb 0.86
DFIX h1wa H1wb 1.22

DFIX O2w H2wa 0.86
DFIX O2w H2wb 0.86
DFIX h2wa H2wb 1.22

WGHT    0.025900    0.046900
FVAR       3.03615
C1B   1   -0.433709   -0.596225   -0.599876    11.00000    0.01790    0.02053 =
         0.01858    0.00028   -0.00021   -0.00116
CO1A  5   -0.435708   -0.621522   -0.308419    11.00000    0.01944    0.01962 =
         0.01729   -0.00108    0.00047    0.00244
O1    4   -0.344223   -0.331384   -0.258293    11.00000    0.02642    0.02362 =
         0.03471   -0.00855    0.00517   -0.00079
C1A   1   -0.268005   -0.330040   -0.322151    11.00000    0.02365    0.02072 =
         0.02716    0.00369   -0.00490    0.00386
O1W   4   -0.394655   -0.857592   -0.143547    11.00000    0.03669    0.03489 =
         0.02150    0.00357    0.00310    0.00536
H1WB  2   -0.428889   -0.866733   -0.079336    11.00000   -1.50000
H1WA  2   -0.382279   -1.011308   -0.156760    11.00000   -1.50000
N1    3   -0.320456   -0.741227   -0.427961    11.00000    0.02111    0.01860 =
         0.01900    0.00076   -0.00296    0.00527
H1    2   -0.295930   -0.870748   -0.402619    11.00000   -1.50000
C2B   1   -0.357120   -0.786777   -0.565892    11.00000    0.02423    0.02593 =
         0.01886   -0.00560   -0.00203    0.00690
AFIX  23
H2BA  2   -0.381761   -0.959157   -0.571544    11.00000   -1.20000
H2BB  2   -0.307033   -0.771114   -0.632038    11.00000   -1.20000
AFIX   0
O2W   4   -0.530034   -0.922169   -0.368342    11.00000    0.02296    0.02469 =
         0.03318    0.00337   -0.00003    0.00250
H2WB  2   -0.527296   -1.055657   -0.328698    11.00000   -1.50000
H2WA  2   -0.583686   -0.880056   -0.352818    11.00000   -1.50000
O2    4   -0.467253   -0.462759   -0.506047    11.00000    0.02875    0.02777 =
         0.01800   -0.00092   -0.00052    0.01031
C2A   1   -0.247323   -0.542396   -0.422940    11.00000    0.02197    0.03332 =
         0.02838   -0.00709    0.00168   -0.00276
AFIX  23
H2AA  2   -0.240205   -0.468879   -0.513415    11.00000   -1.20000
H2AB  2   -0.188542   -0.621853   -0.398379    11.00000   -1.20000
AFIX   0
O3    4   -0.209112   -0.158956   -0.310910    11.00000    0.02472    0.02711 =
         0.06241   -0.00621   -0.00097   -0.00319
O4    4   -0.458663   -0.589780   -0.723135    11.00000    0.02579    0.02953 =
         0.01838    0.00084   -0.00411    0.00587

HKLF 4




REM  AS_200818 in Pca2(1)
REM R1 =  0.0197 for    1789 Fo > 4sig(Fo)  and  0.0218 for all    1885 data
REM    124 parameters refined using      7 restraints

END

WGHT      0.0260      0.0472

REM Highest difference peak  0.224,  deepest hole -0.322,  1-sigma level  0.067
Q1    1  -0.2720 -1.0429 -0.5449  11.00000  0.05    0.22
Q2    1  -0.4035 -0.7027 -0.5804  11.00000  0.05    0.22
Q3    1  -0.4597 -0.9611 -0.5222  11.00000  0.05    0.21
Q4    1  -0.3497 -0.2112 -0.1989  11.00000  0.05    0.21
Q5    1  -0.4471 -1.0093 -0.5951  11.00000  0.05    0.21
Q6    1  -0.5056 -0.9516 -0.4540  11.00000  0.05    0.18
Q7    1  -0.3204 -0.7710 -0.5014  11.00000  0.05    0.18
Q8    1  -0.3255 -0.8608 -0.6271  11.00000  0.05    0.18
Q9    1  -0.2885 -1.0306 -0.0688  11.00000  0.05    0.18
Q10   1  -0.4789 -0.9199 -0.3730  11.00000  0.05    0.17
Q11   1  -0.1472 -0.0696 -0.3135  11.00000  0.05    0.17
Q12   1  -0.5053 -0.9005 -0.0414  11.00000  0.05    0.16
Q13   1  -0.4516 -1.0520 -0.0224  11.00000  0.05    0.16
Q14   1  -0.2693 -0.9204 -0.6797  11.00000  0.05    0.16
Q15   1  -0.3356 -1.1346 -0.1008  11.00000  0.05    0.16
Q16   1  -0.3854 -0.8987 -0.5371  11.00000  0.05    0.16
Q17   1  -0.3688 -0.9060 -0.0789  11.00000  0.05    0.16
Q18   1  -0.1905 -0.8699 -0.5159  11.00000  0.05    0.16
Q19   1  -0.3070 -1.1225 -0.1961  11.00000  0.05    0.15
Q20   1  -0.3736 -1.1275 -0.0377  11.00000  0.05    0.15
;
_shelx_res_checksum              53627

_shelx_hkl_file                  
;
   0   0 -12 6715.70 499.140   1
   0   0 -11-144.139 107.577   1
   0   0 -10 16503.5 753.501   1
   0   0  -9 14.4792 11.2566   9
   0   0  -9 26.7468 16.6132   4
   0   0  -8 14928.4 398.328   9
   0   0  -8 14470.6 404.289   4
   0   0  -8 15598.1 645.233   1
   0   0  -8 15120.9 422.533   4
   0   0  -7 47.1754 59.7715   1
   0   0  -7 25.8292 19.4255   4
   0   0  -7-0.85596 13.2536   9
   0   0  -6 30429.1 731.621   6
   0   0  -6 30353.3 752.071   4
   0   0  -6 30430.3 748.092   9
   0   0  -6 29006.8 931.803   1
   0   0  -5 24.1546 18.6750   9
   0   0  -5 24.0041 12.8384   6
   0   0  -5 56.6551 53.1710   1
   0   0  -4 81303.2 1830.74   6
   0   0  -4 79075.6 1851.57   9
   0   0  -3 37.1721 18.9643   9
   0   0  -3 14.9285 11.6558   6
   0   0  -2 119690. 2718.74   9
   0   0   2 162525. 3484.32   3
   0   0   2 153961. 3440.57   9
   0   0   3 23.7363 13.0790   9
   0   0   3 13.0734 11.1887   6
   0   0   3 26.3390 19.5466   8
   0   0   3 23.9657 32.1529   3
   0   0   4 80431.1 1877.23   2
   0   0   4 75735.9 1805.21   9
   0   0   4 77315.4 1827.83   8
   0   0   4 79259.6 1892.22   3
   0   0   5 34.9634 22.9746   8
   0   0   5 48.7771 34.4376   2
   0   0   5-6.24193 28.3930   3
   0   0   6 31423.7 802.354   8
   0   0   6 30745.6 888.915   3
   0   0   6 32884.5 878.448   2
   0   0   7 8.16659 29.7386   2
   0   0   7 36.5702 27.9276   8
   0   0   7 6.65585 31.7562   3
   0   0   8 16364.9 559.195   2
   0   0   8 15819.9 467.861   8
   0   0   8 15858.9 576.744   3
   0   0   9 2.86737 22.1744   8
   0   0   9-102.225 66.3801   3
   0   0  10 17602.2 513.582   8
   0   0  10 15665.9 642.958   3
   0   0  11 77.0366 68.1703   3
   0   0  12 6464.55 401.831   3
   0   1 -12 2100.19 274.967   1
   0  -1 -12 2351.98 287.253   1
   0   1 -11 39.8991 72.5739   1
   0  -1 -11-42.6830 81.3720   1
   0   1 -10 17142.8 761.436   1
   0  -1 -10 16444.0 749.783   1
   0  -1  -9 35.8544 81.6449   1
   0   1  -9 30.3853 72.3090   1
   0  -1  -9-38.7418 33.2102   4
   0  -1  -8 7711.77 295.416   9
   0  -1  -8 6775.67 397.565   1
   0   1  -8 7009.79 407.228   1
   0   1  -8 7270.20 198.222   4
   0   1  -8 7156.90 202.687   6
   0  -1  -8 7250.34 298.259   4
   0  -1  -7 28.3853 25.0664   4
   0  -1  -7 21.6894 24.9556   9
   0   1  -7 17.1266 12.7898   4
   0   1  -7 7.57482 11.1139   6
   0   1  -7-63.0756 69.4401   1
   0  -1  -7 76.9400 59.7731   1
   0  -1  -6 9547.52 347.824   2
   0   1  -6 9811.30 426.230   1
   0   1  -6 9457.01 271.135   6
   0  -1  -6 9707.33 340.575   4
   0  -1  -6 10067.3 352.266   9
   0  -1  -6 9608.17 424.403   1
   0   1  -6 9549.67 265.359   4
   0  -1  -5 45.3628 49.3990   1
   0   1  -5 21.1872 13.4339   4
   0  -1  -5-3.64541 19.2719   4
   0  -1  -5 19.6340 28.2038   2
   0   1  -5 45.4768 41.8332   1
   0  -1  -5 3.10939 26.0579   9
   0  -1  -4 46081.2 1266.33   1
   0  -1  -4 50394.2 1209.80   2
   0  -1  -4 46352.5 1230.43   9
   0   1  -4 49085.4 1287.33   1
   0   1  -4 49919.9 1152.49   4
   0  -1  -4 49281.1 1215.39   4
   0   1  -3 23.8489 16.6292   4
   0  -1  -3 46.3437 46.7168   1
   0  -1  -3-0.92376 26.2123   9
   0  -1  -3 41.9239 25.4962   2
   0  -1  -3 40.4676 30.7645   5
   0   1  -3 75.9691 43.3053   1
   0  -1  -3 13.3889 29.3837   4
   0   1  -2 19840.2 493.495   9
   0  -1  -2 20444.4 511.199   2
   0   1  -2 19767.2 476.280   7
   0  -1  -2 19710.8 528.931   5
   0   1  -2 20292.2 544.832   1
   0   1  -2 20118.5 505.159   4
   0  -1  -1 3.97489 16.8381   2
   0  -1  -1 30.2970 19.3016   5
   0   1  -1 2.69178 22.0932   4
   0   1  -1 75.3151 27.5421   1
   0   1  -1 14.8902 22.3673   9
   0   1   0 92363.1 2209.70   9
   0   1   0 92803.6 2212.42   4
   0  -1   1 11.4156 17.3572   5
   0   1   1-10.9669 31.0678   9
   0  -1   1 16.2874 24.8447   3
   0   1   1 27.9148 25.1569   4
   0   1   2 19683.7 508.589   2
   0  -1   2 20336.3 485.252   9
   0  -1   2 19599.6 526.183   3
   0  -1   2 19358.7 498.486   4
   0   1   2 18980.5 546.052   9
   0   1   2 21704.3 541.003   4
   0   1   3-32.7798 20.2219   2
   0  -1   3 34.1802 31.6152   3
   0   1   3 19.6764 33.2467   9
   0   1   3 74.7124 26.0893   6
   0  -1   3 31.8137 15.7638   7
   0  -1   3-5.61983 13.6466   4
   0  -1   4 55752.3 1302.35   7
   0   1   4 54888.1 1346.96   2
   0   1   4 54884.4 1377.70   3
   0  -1   4 56123.5 1382.28   8
   0   1   4 55582.0 1322.95   6
   0   1   4 54445.9 1367.27   9
   0  -1   4 55066.5 1379.73   3
   0  -1   5 9.76773 33.8911   8
   0   1   5-2.55997 15.6940   6
   0   1   5 37.2281 32.5433   9
   0  -1   5 31.9175 22.4388   7
   0   1   5-19.8763 20.6489   2
   0   1   5 64.5130 29.0234   3
   0  -1   5 15.8494 26.9330   3
   0   1   6 10642.4 361.370   9
   0  -1   6 10807.0 380.926   8
   0  -1   6 11144.4 403.635   2
   0   1   6 10647.0 400.325   3
   0  -1   6 10638.1 402.535   3
   0  -1   6 10889.0 334.711   7
   0   1   6 10981.5 374.267   2
   0   1   6 10585.2 323.403   6
   0   1   7-45.4552 38.0711   2
   0  -1   7 3.32839 33.4832   3
   0  -1   7 21.4223 21.9824   7
   0  -1   7 1.50840 34.3486   8
   0   1   7 17.1048 28.7051   9
   0   1   7 29.0439 21.3816   6
   0  -1   7 43.5952 33.5956   2
   0   1   7 17.3824 42.0666   3
   0  -1   8 7005.43 299.932   8
   0   1   8 7272.88 315.087   2
   0   1   8 7158.12 237.244   6
   0  -1   8 6864.32 270.559   7
   0   1   8 6583.59 266.355   9
   0  -1   8 6909.60 342.411   3
   0   1   8 6740.68 337.714   3
   0  -1   9 13.9784 28.0594   7
   0  -1   9 116.764 61.7055   3
   0   1   9 88.1411 55.4425   3
   0  -1   9 117.100 56.3640   8
   0   1  10 17346.1 663.962   3
   0  -1  10 16346.5 560.785   8
   0  -1  10 16905.8 660.188   3
   0  -1  11 50.7760 59.4908   3
   0  -1  11-38.5300 43.3404   8
   0   1  11-35.5722 51.3580   3
   0   1  12 1436.99 182.536   3
   0  -1  12 1381.13 182.312   3
   0  -2 -12-264.421 113.366   1
   0   2 -11 25.2774 59.2117   1
   0  -2 -11-130.208 97.6252   1
   0   2 -10 1232.91 188.775   1
   0  -2 -10 591.016 133.713   1
   0   2  -9 15.1735 58.1210   1
   0  -2  -9-53.5478 85.1048   1
   0  -2  -9 32.1246 35.0560   2
   0  -2  -9 28.5861 40.1917   4
   0   2  -8 2817.85 128.057   6
   0  -2  -8 2721.43 196.410   9
   0  -2  -8 2391.11 173.409   2
   0  -2  -8 2637.58 230.850   1
   0   2  -8 2713.88 125.885   4
   0   2  -8 2582.77 233.797   1
   0  -2  -8 2422.05 183.422   4
   0  -2  -7-14.9964 36.2052   9
   0  -2  -7-50.0834 69.6020   1
   0  -2  -7-28.8738 43.7176   4
   0  -2  -7-1.47193 27.8303   2
   0   2  -7 30.5426 25.8549   4
   0   2  -7 28.5576 52.5430   1
   0  -2  -6 4538.65 256.072   9
   0  -2  -6 4618.06 222.334   2
   0   2  -6 4918.16 195.477   4
   0   2  -6 4626.39 279.000   1
   0  -2  -6 4751.03 268.802   1
   0   2  -5 13.0557 44.6568   1
   0   2  -5 18.3243 10.1826   9
   0   2  -5 10.3900 21.2648   4
   0   2  -5-14.8063 27.3855   3
   0  -2  -5 18.1067 31.0019   2
   0  -2  -5-20.6886 33.6756   1
   0   2  -4 1193.52 61.1148   7
   0  -2  -4 1205.30 93.0468   2
   0  -2  -4 1254.93 105.474   1
   0  -2  -4 1089.07 102.423   5
   0   2  -4 1349.02 119.182   1
   0   2  -4 1341.02 76.8170   9
   0  -2  -4 1148.89 114.147   4
   0  -2  -4 1207.33 55.2161   8
   0   2  -4 1240.58 91.9220   4
   0   2  -3 22.3990 16.2862   7
   0   2  -3-28.7774 32.5420   1
   0  -2  -3 23.9856 27.3128   2
   0   2  -3 16.7751 30.3471   9
   0  -2  -3 21.1971 29.4408   5
   0  -2  -3 23.3097 28.5604   1
   0   2  -3 21.4586 26.7791   4
   0  -2  -3-36.6669 33.6060   4
   0   2  -2 3553.57 174.974   4
   0  -2  -2 3545.68 159.911   2
   0  -2  -2 3776.50 136.974   1
   0  -2  -2 3864.50 180.887   5
   0   2  -2 3545.96 157.187   1
   0   2  -2 3780.57 169.593   9
   0  -2  -1 55.2355 33.4767   5
   0   2  -1-0.04868 17.1927   1
   0   2  -1 88.2708 43.1545   9
   0  -2  -1-6.06651 32.2684   2
   0   2  -1 69.7826 35.5833   4
   0   2  -1-39.8328 33.3153   5
   0   2   0 34.2606 35.5965   4
   0   2   0 101.739 37.8839   5
   0  -2   0 39.8775 42.1689   5
   0   2   0 95.7709 47.0087   9
   0  -2   1 26.9109 34.2878   9
   0  -2   1 11.0479 32.9796   5
   0   2   1 66.9787 40.4219   9
   0   2   1-17.6336 35.8894   4
   0   2   1-3.90553 22.3327   5
   0   2   1 45.9013 17.3478  10
   0  -2   1 10.6973 13.9466  10
   0  -2   2 3591.66 159.575   9
   0   2   2 3513.20 185.732   4
   0   2   2 3388.48 166.018   5
   0   2   2 3217.25 152.998   2
   0  -2   2 3499.01 166.850   4
   0   2   2 3332.24 190.181   9
   0  -2   2 3475.37 171.455   5
   0  -2   3 46.9228 31.7177   4
   0  -2   3 47.0111 36.9299   3
   0   2   3 70.2429 30.0235   5
   0   2   3 60.1777 28.9187   2
   0  -2   3 25.2359 21.9782   9
   0   2   3 30.7927 46.2235   4
   0   2   3 0.80305 38.2218   9
   0  -2   4 1264.45 86.3550   4
   0   2   4 1221.66 93.6034   2
   0   2   4 1248.00 121.667   9
   0  -2   4 1042.45 101.286   3
   0   2   4 1384.23 108.489   6
   0  -2   4 1335.11 72.3178   9
   0   2   5 18.2813 32.6135   2
   0   2   5 65.7174 43.7412   5
   0   2   5-0.36420 40.4262   9
   0  -2   5-17.4694 16.8080   4
   0  -2   5 1.16065 45.5896   8
   0   2   5 25.7989 31.9327   6
   0  -2   5 5.95653 32.8997   3
   0  -2   6 4321.66 243.349   3
   0   2   6 4802.10 256.427   5
   0   2   6 4521.92 243.558   3
   0   2   6 4321.28 207.416   6
   0   2   6 4735.69 221.323   2
   0  -2   6 4649.07 262.392   8
   0   2   6 4628.88 249.680   9
   0  -2   7-44.7858 50.7759   3
   0   2   7 25.8128 33.8837   6
   0   2   7 55.6514 38.8464   2
   0   2   7 28.5025 42.0631   3
   0   2   7-9.61741 47.7407   9
   0  -2   7 25.1942 52.7865   8
   0  -2   8 2674.88 212.731   3
   0   2   8 2561.45 152.143   6
   0  -2   8 2812.95 132.113   7
   0   2   8 2845.43 194.235   9
   0   2   8 2500.54 199.744   3
   0  -2   8 2929.25 213.672   8
   0   2   8 2529.66 176.233   2
   0   2   9 74.2077 41.2378   6
   0   2   9-5.21803 47.4205   3
   0  -2   9 32.7127 64.8314   8
   0   2   9-15.2747 43.1683   9
   0  -2   9-54.7112 57.2773   3
   0  -2  10 1201.62 160.492   3
   0  -2  10 997.792 132.428   8
   0   2  10 1202.23 99.0949   6
   0   2  10 953.660 139.547   3
   0  -2  11 108.571 67.8740   3
   0   2  11-15.6696 53.3310   3
   0  -2  11 28.8152 47.1568   8
   0  -3 -12 680.062 133.600   1
   0   3 -11-67.6123 105.870   1
   0  -3 -11 121.426 70.5404   1
   0   3 -10 1908.85 229.563   1
   0  -3 -10 2517.10 244.243   1
   0  -3 -10 2095.79 185.368   2
   0  -3  -9-26.1924 58.9002   1
   0  -3  -9 25.4521 34.7186   2
   0   3  -9-13.9995 94.0439   1
   0  -3  -8 4327.28 283.050   1
   0   3  -8 4167.94 299.663   1
   0   3  -8 4499.60 212.332   4
   0  -3  -8 4228.09 245.410   2
   0   3  -7-50.9905 62.0622   1
   0  -3  -7 26.6269 42.3563   2
   0  -3  -7-17.6720 49.3304   1
   0   3  -7-17.8940 30.2845   4
   0   3  -6 3937.76 156.817   9
   0  -3  -6 4063.94 231.729   1
   0   3  -6 3923.89 210.626   4
   0  -3  -6 4074.90 218.358   2
   0   3  -6 4020.74 254.060   1
   0  -3  -5 31.4556 46.2657   5
   0  -3  -5 14.0618 26.3792   2
   0   3  -5 24.2485 25.7774   9
   0  -3  -5 20.6438 16.1802   8
   0  -3  -5 30.0338 36.6984   4
   0  -3  -5 18.2782 30.1593   1
   0   3  -5 5.66614 12.4426   7
   0   3  -5 26.9507 38.7721   1
   0   3  -5-6.91879 30.9330   4
   0   3  -4 13257.2 463.599   1
   0   3  -4 14503.7 500.860   3
   0   3  -4 13141.2 374.001   7
   0  -3  -4 14428.8 528.700   4
   0   3  -4 12856.0 466.110   4
   0  -3  -4 13105.2 492.941   5
   0   3  -4 13679.8 436.142   9
   0  -3  -4 13024.1 399.515   8
   0  -3  -4 14063.2 424.929   1
   0  -3  -4 13618.7 456.046   2
   0  -3  -4 14546.6 537.287   9
   0   3  -3 56.0735 48.7291   3
   0  -3  -3 11.7805 15.3598   1
   0   3  -3 91.3902 42.3343   9
   0  -3  -3-16.2853 31.7351   8
   0   3  -3-23.5099 38.8780   1
   0  -3  -3 55.4514 36.7987   2
   0   3  -3 44.2627 34.7082   4
   0  -3  -3-14.2174 32.3072   5
   0  -3  -3-34.1429 40.0271   4
   0  -3  -2 37707.7 1079.87   5
   0   3  -2 40831.0 1071.85   9
   0   3  -2 40129.7 1087.11   3
   0  -3  -2 38153.7 1055.71   2
   0   3  -2 39984.6 990.758   1
   0   3  -2 39707.6 1094.20   4
   0   3  -1 18.9535 13.9012   1
   0  -3  -1 16.5696 41.0882   5
   0   3  -1-2.94625 36.5693   4
   0  -3  -1 40.5925 34.7579   2
   0   3  -1-0.33262 44.8708   9
   0   3   0 5917.75 287.907   9
   0  -3   0 6441.18 292.789   5
   0   3   0 6246.68 296.420   4
   0  -3   0 6130.86 289.751   9
   0  -3   1 41.4507 42.5866   5
   0   3   1-4.61396 39.3358   9
   0   3   1 6.28542 43.6242   4
   0  -3   1-16.6080 37.9479   4
   0  -3   1 1.67470 10.9182  10
   0  -3   1 47.4322 32.6010   9
   0  -3   2 38424.1 1064.11   9
   0  -3   2 39458.3 1091.04   4
   0   3   2 41011.9 1130.83   4
   0  -3   2 39230.4 1099.68   5
   0   3   2 40369.3 957.271  10
   0   3   2 40950.0 1135.19   9
   0  -3   2 39012.5 978.938  10
   0  -3   3 0.71907 37.4878   5
   0   3   3 14.7618 45.0616   9
   0   3   3 89.8263 50.8236   4
   0  -3   3-14.0767 39.8340   9
   0  -3   3-8.42858 30.4497   4
   0   3   3 24.0090 31.2054   5
   0  -3   4 13770.0 503.266   5
   0   3   4 13824.3 534.419   9
   0   3   4 14967.1 474.610   2
   0   3   4 14340.8 503.936   5
   0  -3   4 13513.9 535.395   8
   0  -3   4 13643.4 436.493   9
   0   3   4 13891.4 512.704   6
   0  -3   4 13782.9 468.898   4
   0  -3   5 59.5876 58.5452   3
   0  -3   5 10.5185 36.6317   5
   0   3   5 8.41901 52.5013   9
   0  -3   5 20.2516 33.1261   4
   0   3   5-17.9999 44.0320   6
   0  -3   5 9.16340 20.1937   9
   0  -3   5 74.8807 59.6452   8
   0   3   5 3.03305 31.3587   2
   0  -3   6 4832.40 220.680   4
   0  -3   6 4097.17 281.551   8
   0  -3   6 4591.62 170.431   9
   0   3   6 4238.25 276.808   9
   0   3   6 5030.78 245.754   2
   0   3   6 4706.02 259.256   6
   0  -3   6 4705.08 278.496   3
   0  -3   7-3.41487 39.9050   3
   0   3   7-8.19704 61.7445   9
   0   3   7-21.7503 34.7654   6
   0  -3   7-8.09917 24.4609   4
   0  -3   7-92.0209 79.0505   8
   0   3   7 62.3354 36.5885   2
   0   3   7 12.5321 39.8223   3
   0   3   8 3792.05 227.857   6
   0   3   8 4045.93 271.362   3
   0  -3   8 4082.24 292.384   8
   0  -3   8 3756.50 271.858   3
   0   3   8 3651.36 261.397   9
   0   3   9-11.7618 35.9406   6
   0   3   9 73.5395 60.3860   9
   0   3   9-62.6198 55.1557   3
   0  -3   9 16.9762 63.7934   3
   0  -3  10 2347.96 233.339   3
   0   3  10 2236.64 218.169   3
   0  -3  10 1822.77 208.629   8
   0   3  10 2144.48 204.929   9
   0   3  11 39.6337 65.3957   3
   0  -3  11-33.6150 72.1492   8
   0  -3  12 945.218 160.775   8
   0   4 -10 3767.13 317.865   1
   0  -4  -9-86.8335 50.9805   1
   0   4  -9 38.2684 51.9584   1
   0  -4  -9-19.9073 36.9454   2
   0  -4  -8 3959.45 249.246   2
   0   4  -8 3588.26 276.952   1
   0  -4  -8 3826.27 249.153   1
   0  -4  -7-0.22516 30.6117   2
   0   4  -7 44.1339 42.9254   1
   0  -4  -7-88.1979 41.5564   1
   0   4  -7 12.5105 40.9478   4
   0  -4  -6 15666.4 507.401   1
   0   4  -6 15432.3 491.136   9
   0  -4  -6 15025.9 416.777   8
   0  -4  -6 15030.7 550.716   2
   0   4  -6 15044.5 571.961   1
   0  -4  -6 15362.2 622.428   5
   0   4  -6 15267.3 553.254   4
   0  -4  -5 87.8830 63.6881   5
   0   4  -5 51.2140 43.4773   9
   0   4  -5 29.6163 42.7335   4
   0  -4  -5 20.4478 33.5569   2
   0  -4  -5 13.1278 26.5935   8
   0   4  -5 5.08973 15.6930   7
   0   4  -5 50.4229 55.6423   1
   0  -4  -5-6.35496 20.4416   1
   0  -4  -4 24102.3 766.394   2
   0   4  -4 24326.2 722.759   1
   0   4  -4 25557.0 748.693   9
   0  -4  -4 24020.6 622.607   1
   0  -4  -4 24191.4 708.349   8
   0   4  -4 23700.3 780.732   4
   0   4  -4 24830.7 665.479   7
   0  -4  -4 24177.7 814.648   5
   0   4  -3 37.7260 48.2857   9
   0  -4  -3-20.0385 44.5056   5
   0   4  -3-40.1594 43.0713   4
   0  -4  -3-29.8794 33.7725   2
   0   4  -3 11.9749 26.3768   1
   0  -4  -2 37987.2 1151.29   2
   0  -4  -2 43401.0 1158.83   8
   0   4  -2 42755.4 1019.60   1
   0  -4  -2 37766.5 1171.99   5
   0   4  -2 42259.4 1199.18   4
   0   4  -2 42371.0 1174.55   9
   0  -4  -1 76.5684 46.1266   2
   0   4  -1 40.6619 63.8940   3
   0  -4  -1 180.064 66.7298   5
   0   4  -1 45.4985 50.9382   4
   0   4  -1 8.64563 40.7290   9
   0   4  -1-20.1547 46.0278   5
   0  -4  -1 94.5850 64.0510   8
   0   4   0 40365.5 1173.32   4
   0   4   0 38404.1 1146.09   9
   0   4   0 44030.4 1168.06   5
   0  -4   0 39304.5 1146.77   8
   0  -4   0 38291.0 1141.78   5
   0  -4   0 38578.8 1144.69   2
   0   4   1 109.807 70.4550   9
   0   4   1 51.6660 56.6697   4
   0  -4   1 245.684 144.009   8
   0  -4   1 112.164 110.227   9
   0   4   1 0.71083 41.1909   5
   0  -4   1 87.8873 77.1341   5
   0  -4   2 48302.8 1248.91   9
   0  -4   2 42313.9 1260.78   5
   0   4   2 45839.7 1293.50   4
   0   4   2 45041.6 1288.13   9
   0  -4   2 42621.0 1053.97  10
   0   4   2 44210.5 1264.36   5
   0  -4   2 44302.3 1284.66   8
   0  -4   3 29.0557 48.4605   5
   0  -4   3-52.4308 40.7017   9
   0  -4   3 55.3461 54.4940   4
   0  -4   3-17.1123 56.1232   8
   0   4   3 52.8378 53.3677   4
   0   4   3 78.4902 76.0189   9
   0  -4   3 48.7082 28.2288  10
   0   4   3 23.7255 18.8791  10
   0  -4   4 22490.5 671.170  10
   0  -4   4 22505.0 712.897   9
   0  -4   4 24246.0 802.708   5
   0  -4   4 23037.0 755.750   4
   0  -4   4 23725.0 829.049   8
   0   4   4 23309.0 799.711   6
   0   4   4 24030.9 823.814   9
   0  -4   5 26.7431 33.0991   9
   0   4   5 206.218 88.2145   9
   0  -4   5 2.21316 32.1083   4
   0  -4   5 9.22878 54.1390   5
   0   4   5 54.6222 58.0904   6
   0  -4   5 35.9450 66.7202   8
   0  -4   6 14647.1 608.485   5
   0  -4   6 15064.3 538.543   4
   0   4   6 14854.2 622.082   9
   0  -4   6 13602.9 621.743   8
   0   4   6 13636.8 576.488   6
   0  -4   6 15622.8 483.648   9
   0  -4   7-21.0159 61.7365   5
   0  -4   7 47.7735 76.7187   8
   0   4   7-41.1441 67.9545   9
   0   4   7 74.2434 68.3946   6
   0  -4   8 2841.05 271.190   8
   0   4   8 2660.34 247.403   9
   0   4   8 2942.90 252.171   3
   0  -4   8 3477.67 279.783   5
   0   4   8 3092.84 238.415   6
   0   4   9-64.6741 54.9311   9
   0   4   9-41.4559 71.6613   3
   0  -4   9 116.708 90.1700   3
   0  -4   9 153.138 83.9484   8
   0  -4   9 67.2617 73.3993   5
   0   4   9 116.838 62.5091   6
   0  -4  10 4312.37 352.580   8
   0   4  10 4685.90 346.495   3
   0  -4  10 4404.32 346.506   5
   0   4  10 4238.64 328.588   9
   0   4  11 137.307 91.1423   9
   0   5  -9 74.9952 54.8322   1
   0   5  -8 4346.89 305.761   1
   0   5  -7-36.3160 45.6322   4
   0  -5  -7-13.0461 36.4936   2
   0   5  -7-54.9764 55.5114   1
   0   5  -6 1771.09 172.713   4
   0  -5  -6 2000.48 187.429   2
   0   5  -6 1889.61 168.201   1
   0  -5  -6 1561.03 194.791   5
   0   5  -5 20.6446 47.0690   4
   0  -5  -5 59.6255 48.1608   2
   0   5  -5-10.0592 35.2659   9
   0  -5  -5 32.8454 48.6711   5
   0   5  -5-10.2139 36.6783   1
   0  -5  -4 6148.08 376.279   5
   0   5  -4 6232.55 355.640   4
   0  -5  -4 6251.23 346.633   2
   0   5  -4 6804.44 336.802   9
   0  -5  -4 6861.40 322.036   8
   0   5  -4 7079.31 284.112   1
   0   5  -3 41.0386 51.6199   4
   0   5  -3 18.8056 22.9861   1
   0   5  -3 71.4065 57.1962   9
   0  -5  -3-27.8601 54.1582   5
   0  -5  -3-10.5169 39.1819   2
   0  -5  -3 39.2918 51.5427   8
   0  -5  -2 3492.72 259.221   5
   0  -5  -2 3674.01 242.578   8
   0   5  -2 3751.32 253.564   9
   0   5  -2 3663.60 262.410   4
   0  -5  -2 3117.56 234.855   2
   0  -5  -1 1.10371 48.3034   2
   0  -5  -1 120.297 64.3600   8
   0   5  -1-59.1849 63.9972   9
   0  -5  -1 45.7205 57.6202   5
   0   5  -1-2.12624 47.5708   4
   0  -5   0 6839.25 368.208   5
   0   5   0 7511.37 398.799   4
   0   5   0 6839.86 374.450   9
   0  -5   0 6653.19 365.231   2
   0  -5   0 6893.85 370.730   8
   0   5   1-38.8065 56.4525   4
   0  -5   1 176.312 78.9076   8
   0  -5   1-32.9012 49.0309   5
   0   5   1 116.230 77.5485   9
   0  -5   2 4729.98 306.908   5
   0  -5   2 4429.67 307.830   8
   0   5   2 4075.39 295.307   9
   0   5   2 4202.50 301.009   4
   0   5   3-22.8015 66.4108   6
   0   5   3 95.0645 76.3332   9
   0  -5   3 23.1572 54.7263   8
   0  -5   3 27.0860 56.0979   5
   0  -5   4 6882.98 411.960   8
   0  -5   4 6418.75 394.847   5
   0   5   4 6610.82 394.375   6
   0   5   4 6909.75 407.903   9
   0  -5   5-5.96920 68.1339   5
   0   5   5-30.2243 57.3980   9
   0  -5   5-18.5851 69.9988   8
   0   5   5-5.99071 55.5457   6
   0   5   6 2307.47 227.992   6
   0  -5   6 2041.53 232.155   5
   0  -5   6 2028.34 229.131   8
   0   5   6 2045.96 227.415   9
   0   5   7-46.2201 79.5225   9
   0  -5   7 175.333 94.6398   8
   0  -5   7-18.7747 64.0784   5
   0   5   7 20.5560 54.5841   6
   0   5   8 3470.38 292.141   6
   0   5   8 4669.85 353.820   9
   0  -5   8 4397.04 349.111   5
   0  -5   8 3515.86 327.400   8
   0   5   9 91.2649 68.0122   6
   0  -6  -6 421.393 113.776   5
   0   6  -6 711.253 112.837   4
   0  -6  -5 140.659 68.4499   2
   0  -6  -5 95.8910 83.1672   5
   0   6  -5 1.39005 50.7068   4
   0  -6  -4 524.302 105.667   2
   0   6  -4 901.279 127.689   9
   0  -6  -4 812.763 149.166   5
   0   6  -4 880.499 139.405   4
   0  -6  -3 26.7102 39.8939   2
   0  -6  -3-28.1615 55.7914   8
   0  -6  -3 98.6894 69.2784   5
   0   6  -3-47.8075 61.8139   9
   0   6  -3 100.098 60.7514   4
   0  -6  -2 398.156 98.2485   2
   0   6  -2 418.104 99.6301   9
   0  -6  -2 521.415 109.711   8
   0  -6  -2 562.668 114.871   5
   0   6  -2 340.878 103.007   4
   0  -6  -1-53.7246 64.9824   8
   0   6  -1 78.0574 69.9359   4
   0  -6  -1 58.7778 62.1748   2
   0  -6  -1-45.5458 54.5697   5
   0   6  -1 71.2443 69.0814   9
   0  -6   0 264.529 91.5209   2
   0   6   0 300.292 85.5302   9
   0  -6   0 389.175 99.2375   5
   0   6   0 306.774 88.5620   4
   0  -6   0 133.558 63.1529   8
   0  -6   1-18.1591 71.5038   8
   0  -6   1 46.7902 58.6623   5
   0   6   1-29.3443 67.8649   9
   0   6   1 155.899 80.2913   6
   0  -6   1 3.56583 60.4381   2
   0  -6   2 380.535 92.9747   2
   0   6   2 431.910 110.059   9
   0   6   2 319.525 100.858   6
   0  -6   2 109.006 71.0590   8
   0  -6   2 254.608 86.9203   5
   0  -6   3 145.672 86.4137   8
   0  -6   3-17.0206 69.9419   5
   0   6   3-34.8899 59.9791   6
   0   6   3-29.8744 69.5638   9
   0  -6   4 768.144 159.537   8
   0   6   4 973.625 164.157   9
   0   6   4 985.184 170.177   6
   0  -6   4 997.527 170.767   5
   0  -6   5-70.5018 60.9625   5
   0   6   5-10.6442 60.3929   6
   0  -6   6 695.832 152.228   5
   0  -7  -2 1492.84 191.514   2
   0   7  -2 1666.54 200.213   9
   0  -7  -2 1767.87 212.490   5
   0  -7  -1 64.7995 58.5926   2
   0  -7  -1 35.0506 63.4211   5
   0  -7  -1 39.9045 68.1010   8
   0  -7   0 827.804 145.385   2
   0  -7   0 1004.97 160.210   5
   0  -7   0 862.647 150.995   8
   0  -7   1-33.9936 56.2298   5
   0  -7   1-77.8435 61.9223   2
   0  -7   2 1661.69 203.656   5
   1   0 -12 164.607 113.367   1
  -1   0 -12-164.276 118.734   1
   1   0 -11 29.0932 74.6186   1
  -1   0 -11 1.54310 58.5354   1
   1   0 -10 73.9944 75.9796   1
  -1   0 -10-18.9014 85.7675   1
   1   0  -9 20.3217 12.9589   9
  -1   0  -9 2.19837 8.31403   9
   1   0  -9 25.1797 20.2912   4
   1   0  -9 5.80257 76.9925   1
   1   0  -9 11.3783 18.6769   4
  -1   0  -9 8.22047 59.9305   1
   1   0  -8 43.4933 20.3224   4
  -1   0  -8 16.4111 7.31079   4
   1   0  -8-12.1229 14.5774   6
  -1   0  -8 3.84558 10.4878   9
  -1   0  -8 7.86580 5.43677   4
   1   0  -8 27.3724 66.4027   1
   1   0  -8 24.0356 21.6799   9
  -1   0  -8-55.5873 62.7428   1
   1   0  -7 1.74378 30.7833   3
  -1   0  -7 8.15151 9.12091   4
   1   0  -7 21.5240 16.8959   6
   1   0  -7 123.661 92.2992   1
  -1   0  -7 16.4101 9.13915   4
  -1   0  -7 37.5293 54.0046   1
  -1   0  -7 20.5599 12.2456   9
   1   0  -7 17.4081 19.7236   9
   1   0  -6 11.9276 21.0862   9
   1   0  -6 5.45499 14.5165   6
  -1   0  -6-3.79594 10.1282   9
  -1   0  -6 10.8251 11.9460   4
   1   0  -5-8.34864 15.7131   6
  -1   0  -5 11.8310 10.5858   4
  -1   0  -5 8.02807 35.1848   1
   1   0  -5 19.0630 26.3763   9
  -1   0  -5 11.1085 12.0645   9
   1   0  -4 29.2809 24.6633   8
   1   0  -4 40.0972 19.5612   6
  -1   0  -4-11.8739 11.2600   4
   1   0  -4 1.25124 17.5876   9
  -1   0  -4-18.1198 37.3850   1
  -1   0  -4 18.7269 14.7013   9
   1   0  -4 2.60109 23.6340   2
  -1   0  -3 35.3154 15.1534   9
   1   0  -3 40.7320 22.4915   2
   1   0  -3 6.46987 13.6523   6
   1   0  -3 12.5879 14.7189   9
   1   0  -3 20.1132 22.0383   8
  -1   0  -3 21.5026 34.7336   1
   1   0  -2 27.2130 28.3188   2
  -1   0  -2 20.9306 11.1184   9
   1   0  -2 39.3206 17.9253   8
  -1   0  -2 4.31419 25.5754   1
   1   0   2 25.4930 20.8034   3
  -1   0   2 6.85236 23.1727   6
   1   0   3 32.7412 15.2164   9
   1   0   3-2.81415 19.5117   2
  -1   0   3 65.6533 20.6460   8
  -1   0   3 25.8984 15.3810   6
   1   0   3-4.30328 20.6437   3
  -1   0   3 30.5723 26.1447   3
  -1   0   4 25.4344 29.8490   3
   1   0   4 33.0318 35.3354   3
   1   0   4-15.4544 21.8034   2
  -1   0   4 47.8284 22.7245   8
   1   0   4 58.4034 24.5093   9
   1   0   5 12.2800 23.9295   8
   1   0   5 36.7929 30.3780   2
   1   0   5 29.1933 37.2209   3
  -1   0   5 22.5610 23.9486   8
  -1   0   5-22.7822 32.4718   3
   1   0   5 1.89472 17.1500   9
  -1   0   5-8.61004 27.9514   2
   1   0   6 12.9300 23.6480   8
  -1   0   6 40.6651 30.1416   2
  -1   0   6 17.1701 23.0807   8
  -1   0   6 4.72635 27.1066   3
   1   0   6 16.5187 15.7061   9
   1   0   6-2.83268 27.3307   2
   1   0   6 20.9488 31.5616   3
  -1   0   7-22.7555 32.5702   3
  -1   0   7-9.61553 21.6220   8
   1   0   7 8.43752 28.1361   2
   1   0   7-5.95039 22.8120   8
   1   0   7 43.1050 38.9664   3
  -1   0   7-59.2963 28.2851   2
  -1   0   8 22.7458 38.6371   3
   1   0   8 1.52697 32.7153   2
  -1   0   8 27.9321 27.9371   8
   1   0   8 49.6149 45.1695   3
   1   0   8 20.5371 24.9962   8
   1   0   9 36.7940 46.3617   3
  -1   0   9 9.20753 59.3561   3
   1   0   9 60.6076 34.0581   8
  -1   0   9 38.7316 27.1414   8
   1   0  10-31.9495 44.5744   3
  -1   0  10 52.0267 51.2366   3
   1   0  10-40.9489 31.2874   8
  -1   0  10 45.7460 31.6690   8
  -1   0  11 38.9936 61.8561   3
   1   0  11 138.392 71.4026   3
  -1   0  12-28.2124 45.6209   3
   1   0  12 32.4003 50.0261   3
   1  -1 -12 430.225 138.508   1
   1   1 -12 598.863 154.362   1
  -1  -1 -12 289.704 107.312   1
  -1   1 -12 282.521 121.610   1
  -1  -1 -11 2723.18 298.736   1
   1  -1 -11 3170.98 319.889   1
  -1   1 -11 3325.78 321.207   1
   1   1 -11 2965.93 307.003   1
  -1  -1 -10 620.202 132.149   1
   1  -1 -10 352.271 106.650   1
  -1   1 -10 663.366 141.420   1
   1   1 -10 510.837 123.978   1
  -1   1  -9 3635.73 301.277   1
   1  -1  -9 3161.34 281.075   1
   1   1  -9 3252.77 284.452   1
  -1  -1  -9 2673.80 156.002   9
  -1  -1  -9 2874.09 266.338   1
   1   1  -9 3719.12 131.022   4
   1   1  -9 3716.15 129.782   6
  -1  -1  -9 3712.82 169.040   4
   1   1  -8 3215.89 265.782   1
  -1   1  -8 2916.38 247.945   1
  -1  -1  -8 3166.90 162.184   4
   1   1  -8 3095.28 128.403   6
   1   1  -8 3063.23 127.807   4
   1  -1  -8 3260.71 184.094   4
  -1  -1  -8 2895.56 160.202   9
  -1  -1  -8 2945.75 250.304   1
   1  -1  -8 2834.07 248.013   1
   1   1  -7 22818.0 799.635   1
   1  -1  -7 22444.6 792.581   1
   1   1  -7 22616.2 586.192   4
  -1  -1  -7 21780.0 638.385   4
   1  -1  -7 23123.9 660.505   4
  -1  -1  -7 22376.3 643.777   9
   1  -1  -7 22209.3 677.349   9
  -1  -1  -7 21147.3 775.727   1
  -1   1  -7 23090.5 804.990   1
   1  -1  -7 22783.0 696.173   2
   1   1  -7 22955.7 589.170   6
  -1  -1  -6 1490.66 105.585   9
   1  -1  -6 1469.94 155.916   1
   1  -1  -6 1402.36 104.790   4
   1   1  -6 1381.56 154.402   1
   1   1  -6 1318.78 78.5455   6
   1  -1  -6 1415.92 119.027   9
  -1  -1  -6 1105.61 132.841   1
  -1   1  -6 1477.15 150.669   1
  -1   1  -6 1165.01 53.9456   6
   1  -1  -6 1239.57 109.985   2
   1   1  -6 1429.55 79.6945   4
  -1  -1  -6 1300.14 98.3749   4
  -1   1  -5 24343.4 751.484   1
   1  -1  -5 23867.4 573.019   8
  -1   1  -5 22372.4 561.771   4
  -1  -1  -5 24219.0 644.911   2
  -1  -1  -5 24200.6 655.555   9
   1  -1  -5 23105.5 681.536   9
   1  -1  -5 23922.2 669.779   2
  -1  -1  -5 22227.9 645.793   4
   1  -1  -5 24026.2 649.026   4
  -1  -1  -5 22983.7 732.154   1
   1   1  -5 24703.8 606.096   4
  -1  -1  -4 9643.33 366.919   1
  -1   1  -4 10413.8 386.644   1
   1  -1  -4 10331.4 334.154   2
   1  -1  -4 10342.5 351.043   9
  -1   1  -4 9931.36 269.320   4
   1  -1  -4 9975.07 259.482   8
   1   1  -4 9916.98 256.468   9
  -1  -1  -4 10287.7 311.041   2
  -1  -1  -4 10683.9 336.524   9
   1  -1  -4 10173.1 324.971   4
   1  -1  -4 10530.1 314.944   6
  -1  -1  -4 9392.16 324.199   4
   1   1  -4 10039.0 292.384   4
  -1   1  -3 28116.3 779.806   1
   1  -1  -3 28326.3 730.909   4
  -1  -1  -3 28931.4 704.128   2
  -1  -1  -3 27686.9 747.882   5
   1   1  -3 28456.7 702.016   4
   1   1  -3 28733.5 674.226   9
  -1  -1  -3 27012.2 735.783   4
   1  -1  -3 27214.6 719.686   6
  -1   1  -3 28396.9 695.642   7
  -1  -1  -3 26927.6 758.182   1
   1  -1  -3 28477.8 669.802   8
   1  -1  -3 29287.4 735.224   2
  -1  -1  -3 28275.1 743.181   9
  -1   1  -3 28173.7 688.909   4
   1  -1  -3 28719.5 755.423   9
  -1   1  -2 22409.2 593.141   1
   1  -1  -2 21267.2 563.383   2
   1  -1  -2 21381.3 561.234   5
   1   1  -2 22038.1 533.284   9
  -1   1  -2 21470.7 546.542   4
   1   1  -2 21604.2 550.219   4
  -1   1  -2 21954.2 524.043   9
  -1  -1  -2 21210.7 570.332   1
  -1  -1  -2 21614.2 577.912   5
  -1  -1  -2 22048.3 534.304   2
  -1   1  -2 21511.5 535.769   7
  -1   1  -1 42146.2 1028.33   4
   1   1  -1 42955.3 1028.25   4
   1   1  -1 42361.9 1016.91   9
  -1  -1  -1 43097.4 1008.47   1
   1  -1  -1 43925.7 1018.35   5
  -1  -1  -1 43956.2 1005.44   8
  -1  -1  -1 45213.6 1006.94   2
   1  -1  -1 43419.1 1030.40   2
  -1   1  -1 44103.0 1017.76   9
  -1   1  -1 40249.8 1028.55   1
  -1  -1  -1 43598.2 1044.24   5
   1   1  -1 42151.3 1041.01   8
  -1   1   0 9899.52 272.051   9
   1   1   0 9492.26 271.080   4
  -1   1   0 9945.08 275.445   4
   1  -1   0 10116.4 240.264   1
  -1   1   0 9620.62 250.492  10
  -1  -1   0 9395.12 291.840   5
   1  -1   0 8980.83 248.896  10
   1   1   0 9438.02 261.233   8
   1   1   0 9820.86 269.234   9
  -1  -1   1 41909.2 1011.78   5
   1   1   1 43301.5 1015.69   9
   1   1   1 41291.9 972.404   8
   1  -1   1 40098.9 985.164   3
   1   1   1 41349.1 1015.27   4
  -1   1   1 43342.4 1016.29   9
  -1   1   1 41776.1 1004.61   6
   1   1   1 40110.0 972.931   1
   1  -1   2 21930.8 552.359   3
   1   1   2 22410.6 577.962   9
  -1  -1   2 20807.5 516.600   9
   1  -1   2 21448.7 518.447   9
  -1   1   2 21441.9 565.081   9
   1   1   2 17784.9 555.882   4
  -1   1   2 20711.7 546.122   6
   1   1   2 21194.8 517.941   2
   1  -1   2 21596.2 530.076   4
   1   1   2 21439.7 556.684   1
  -1  -1   2 21110.8 558.166   3
  -1  -1   2 20305.5 533.855   4
   1   1   3 25178.9 702.341   9
  -1  -1   3 25494.9 608.381   7
  -1   1   3 26212.7 687.157   9
   1   1   3 26266.7 652.409   2
   1  -1   3 25671.0 623.169   4
  -1   1   3 26823.5 682.781   2
  -1  -1   3 26255.9 651.736   4
  -1  -1   3 26443.7 696.893   3
   1  -1   3 26724.5 645.575   7
   1   1   3 26565.5 683.156   4
  -1   1   3 25361.4 681.176   3
   1  -1   3 26418.4 687.894   3
  -1   1   3 26056.4 665.389   6
  -1  -1   4 9546.33 252.255   7
   1   1   4 9854.34 281.971   6
   1  -1   4 9274.50 321.505   3
   1   1   4 9539.33 328.525   3
  -1   1   4 9846.05 312.413   9
   1  -1   4 8520.88 239.230   4
   1   1   4 9067.51 285.938   2
   1  -1   4 9436.83 278.520   7
  -1  -1   4 9134.34 325.674   3
   1   1   4 9185.76 324.947   9
  -1   1   4 8889.66 315.043   3
  -1   1   4 9106.78 286.389   6
  -1   1   4 9694.42 314.055   2
  -1  -1   4 9503.94 320.884   8
   1  -1   5 22474.8 641.943   8
  -1   1   5 21524.4 603.775   9
   1   1   5 20844.4 589.974   2
  -1  -1   5 20894.4 547.640   7
   1   1   5 21837.6 625.794   9
  -1  -1   5 21616.8 640.361   3
   1   1   5 21069.2 555.499   6
  -1   1   5 21962.1 620.003   2
  -1   1   5 21156.3 629.374   3
   1  -1   5 21294.5 635.057   3
   1  -1   5 21908.5 576.966   7
  -1   1   5 22107.5 580.177   6
  -1  -1   5 21837.5 621.805   8
   1   1   5 21674.4 641.195   3
   1   1   6 1650.91 136.157   3
   1  -1   6 1815.15 109.461   7
  -1   1   6 1736.80 128.279   2
  -1  -1   6 1834.83 128.273   8
   1   1   6 1855.52 126.694   9
   1   1   6 1767.54 118.975   2
  -1   1   6 1740.74 104.215   6
   1   1   6 1694.64 89.5385   6
  -1  -1   6 1624.08 134.343   3
  -1   1   6 1702.82 136.603   3
  -1   1   6 1794.29 115.962   9
   1  -1   6 2010.40 139.184   8
  -1  -1   6 1865.51 142.215   2
  -1  -1   6 1947.81 100.719   7
   1  -1   6 1809.04 142.867   3
  -1   1   6 2022.81 149.633   5
  -1  -1   7 23059.3 737.020   3
   1  -1   7 24784.4 734.389   2
  -1  -1   7 23331.2 736.847   2
   1  -1   7 24236.2 704.116   8
   1   1   7 22349.6 730.692   3
  -1   1   7 24961.7 718.504   2
   1   1   7 22973.3 682.544   2
  -1   1   7 23911.6 639.630   6
   1   1   7 23925.4 672.769   9
  -1  -1   7 23508.8 692.227   8
   1  -1   7 22597.9 730.647   3
   1  -1   7 22904.3 653.915   7
  -1   1   7 21875.7 723.201   3
   1   1   7 23873.9 604.736   6
  -1  -1   7 23224.8 633.755   7
  -1   1   8 3410.21 155.979   6
   1   1   8 3343.96 174.140   9
  -1  -1   8 2875.65 211.359   3
   1  -1   8 3096.43 189.639   8
  -1  -1   8 3134.87 191.313   8
   1   1   8 3284.00 130.354   6
   1   1   8 3099.23 218.128   3
  -1  -1   8 3368.59 165.402   7
  -1   1   8 3081.44 218.747   3
   1  -1   8 3407.15 228.374   3
   1  -1   8 3108.62 171.206   7
   1   1   8 3198.34 192.156   2
   1  -1   9 3836.60 201.135   7
   1  -1   9 3736.57 212.701   8
  -1   1   9 3410.36 243.156   3
  -1  -1   9 3663.72 186.457   7
   1   1   9 3681.31 252.899   3
   1   1   9 3642.55 183.994   9
  -1  -1   9 3348.96 202.805   8
   1  -1   9 3636.45 253.075   3
  -1  -1   9 3509.81 249.889   3
   1  -1  10 698.284 91.1564   8
  -1   1  10 588.199 117.613   3
  -1  -1  10 576.055 88.8961   8
  -1  -1  10 860.211 132.420   3
   1   1  10 761.593 124.484   3
   1  -1  10 527.315 106.374   3
  -1  -1  11 3254.83 207.706   8
   1   1  11 2986.12 256.958   3
   1  -1  11 2911.60 252.550   3
   1  -1  11 2892.59 193.868   8
  -1   1  11 2918.13 249.523   3
  -1  -1  11 3176.22 265.888   3
  -1   1  12 429.019 116.124   3
   1  -1  12 370.344 106.234   3
   1   1  12 391.842 104.656   3
  -1  -1  12 304.698 101.774   3
  -1  -2 -12 355.337 121.135   1
   1  -2 -12 553.172 154.577   1
   1  -2 -11 4117.88 354.399   1
  -1  -2 -11 4479.66 367.520   1
  -1   2 -11 4370.59 371.875   1
   1   2 -11 4563.05 380.649   1
   1   2 -10 4070.61 332.690   1
   1  -2 -10 4344.38 339.716   1
  -1  -2 -10 3750.58 315.509   1
  -1   2 -10 3631.44 315.337   1
   1   2  -9 13726.0 634.172   1
   1   2  -9 14164.4 410.325   4
   1  -2  -9 13808.2 536.188   4
  -1  -2  -9 14065.3 625.159   1
   1  -2  -9 13923.1 532.612   2
  -1   2  -9 13797.5 634.263   1
  -1  -2  -9 13304.7 497.128   4
   1  -2  -9 13993.2 625.385   1
   1  -2  -8 4904.21 319.117   1
   1  -2  -8 4583.32 255.804   2
   1   2  -8 4604.46 190.647   4
  -1  -2  -8 5032.18 264.675   9
  -1  -2  -8 4581.30 249.904   4
   1  -2  -8 4387.56 259.686   4
   1  -2  -8 4900.48 279.048   9
  -1   2  -8 4513.08 162.029   6
  -1  -2  -8 4486.13 236.672   2
  -1   2  -8 4597.33 318.599   1
   1   2  -8 4608.25 316.161   1
  -1  -2  -8 4717.37 312.084   1
   1   2  -8 4930.72 196.525   6
   1  -2  -7 32871.8 953.169   2
   1  -2  -7 33881.3 1042.39   1
   1  -2  -7 34587.6 1010.14   9
   1   2  -7 33742.5 1054.41   1
   1   2  -7 34232.3 873.606   4
  -1  -2  -7 34138.1 927.787   2
   1  -2  -7 33947.4 983.612   4
  -1   2  -7 32300.5 1053.91   1
  -1   2  -7 33002.9 829.624   4
  -1  -2  -7 32973.2 1033.67   1
  -1  -2  -7 34094.3 983.893   9
  -1   2  -6 2453.51 121.999   4
   1   2  -6 2655.00 136.326   4
   1  -2  -6 2545.12 177.784   4
   1   2  -6 2374.07 195.984   1
   1  -2  -6 2487.47 193.659   1
   1  -2  -6 2510.98 189.332   9
  -1  -2  -6 2438.41 174.315   9
   1  -2  -6 2381.86 158.677   2
  -1  -2  -6 2260.82 141.639   2
  -1   2  -6 2285.19 194.350   1
  -1  -2  -6 2433.50 185.736   1
  -1   2  -6 2353.59 170.413   3
   1  -2  -5 22272.9 643.755   2
   1  -2  -5 22460.2 688.292   1
  -1  -2  -5 21516.4 674.247   5
  -1  -2  -5 22250.4 681.242   1
  -1  -2  -5 21582.3 609.601   2
  -1   2  -5 22624.3 710.457   1
  -1   2  -5 22901.6 670.776   3
   1  -2  -5 20166.9 518.457   8
   1   2  -5 22927.9 709.524   1
   1   2  -5 23170.6 565.127   9
   1   2  -5 22608.5 606.386   4
  -1   2  -5 22643.9 599.364   4
  -1   2  -4 5360.59 253.107   1
  -1  -2  -4 5342.10 251.052   4
   1  -2  -4 5086.47 220.108   2
  -1   2  -4 5511.61 173.488   9
  -1  -2  -4 4733.15 136.786   8
  -1  -2  -4 5111.17 228.874   1
  -1   2  -4 5003.98 205.978   4
  -1  -2  -4 4731.38 236.130   5
  -1   2  -4 4927.04 175.906   7
   1   2  -4 5207.72 249.924   1
   1  -2  -4 5411.43 238.154   5
  -1  -2  -4 5132.52 200.372   2
   1   2  -4 5013.48 205.761   4
   1   2  -4 5476.87 190.940   9
  -1  -2  -3 55460.0 1417.17   5
  -1  -2  -3 56440.3 1312.36   8
  -1  -2  -3 56319.0 1371.09   1
   1  -2  -3 56650.6 1431.14   4
   1  -2  -3 54756.6 1381.21   2
   1   2  -3 53389.2 1281.04   7
  -1   2  -3 58106.7 1412.83   1
  -1   2  -3 55695.7 1344.20   9
  -1   2  -3 56668.0 1387.60   4
  -1  -2  -3 55443.4 1351.18   2
   1   2  -3 57304.8 1357.98   9
   1   2  -3 57437.5 1380.61   4
  -1  -2  -3 55728.5 1433.58   4
  -1   2  -3 54739.1 1391.71   3
   1  -2  -3 55597.0 1395.69   5
  -1   2  -3 53203.4 1324.69   7
  -1  -2  -2 20317.7 552.721   2
   1   2  -2 20961.7 585.175   4
   1   2  -2 20660.8 570.051   9
   1  -2  -2 20719.2 580.048   2
  -1   2  -2 20918.8 592.615   4
  -1   2  -2 21100.8 570.693   1
  -1  -2  -2 20279.9 543.950   8
   1  -2  -2 21034.0 580.595   5
  -1  -2  -2 21186.6 530.040   1
  -1  -2  -2 19594.8 597.106   5
  -1   2  -2 20518.6 578.682   3
  -1   2  -2 19441.8 562.029   9
   1  -2  -1 5225.60 210.858   5
  -1   2  -1 5022.42 207.986   5
  -1  -2  -1 5263.39 210.055   2
  -1  -2  -1 5264.85 205.407   8
  -1   2  -1 5590.59 184.115   1
   1  -2  -1 5513.36 226.521   2
   1   2  -1 5678.08 229.201   4
  -1   2  -1 5385.89 229.775   4
  -1   2  -1 5590.68 217.921   3
  -1  -2  -1 5235.68 229.842   5
   1   2  -1 5337.97 218.217   9
  -1   2  -1 5332.22 219.316   9
   1   2   0 5668.59 237.614   9
  -1   2   0 6089.92 180.469  10
  -1   2   0 6230.76 236.651   5
   1   2   0 5551.37 242.254   4
   1  -2   0 5584.01 229.210   5
  -1  -2   0 6310.12 260.199   5
  -1   2   0 5658.14 240.953   4
   1  -2   0 5664.86 164.268   1
  -1  -2   0 5739.75 231.938   8
   1  -2   0 5734.20 179.123  10
  -1   2   0 5839.84 242.214   9
   1  -2   1 3094.23 125.787  10
   1  -2   1 3809.33 180.523   4
   1   2   1 3097.94 174.011   9
  -1   2   1 3097.18 118.997  10
  -1   2   1 3157.25 152.631   5
  -1  -2   1 3057.00 172.332   5
   1  -2   1 3176.47 127.361   1
  -1  -2   1 3103.41 154.924   9
   1  -2   1 2890.10 155.785   9
   1   2   1 2988.37 172.931   4
  -1   2   1 2788.42 164.743   9
   1  -2   1 3230.89 159.028   5
  -1   2   1 2968.99 168.247   4
  -1  -2   2 18742.9 562.316   5
  -1   2   2 19433.0 571.322   6
   1  -2   2 18636.9 550.179   4
   1  -2   2 18476.7 539.521   5
  -1   2   2 19277.6 543.434   2
   1   2   2 18679.8 587.631   9
  -1  -2   2 19572.5 529.914   9
  -1   2   2 17933.0 576.753   9
   1   2   2 19675.1 591.648   4
  -1  -2   2 18748.8 543.793   4
   1  -2   2 19579.7 543.463   9
  -1   2   2 18897.0 538.161   5
  -1  -2   3 55114.7 1386.47   3
   1  -2   3 55328.1 1347.65   4
  -1  -2   3 54157.6 1346.13   4
   1   2   3 52458.7 1401.36   4
  -1  -2   3 52821.6 1382.58   5
  -1   2   3 56564.9 1360.46   2
  -1   2   3 56807.8 1371.08   5
   1   2   3 55242.9 1327.41   2
  -1   2   3 54904.5 1383.73   6
   1  -2   3 52524.8 1324.64   9
  -1   2   3 52249.9 1404.45   9
  -1  -2   3 55085.6 1318.52   9
   1  -2   3 55617.4 1372.34   3
   1   2   3 55718.8 1427.89   9
   1   2   4 4787.05 194.297   2
   1   2   4 5206.64 260.920   9
  -1   2   4 5145.36 226.761   6
   1   2   4 5172.39 240.813   4
  -1  -2   4 4721.30 232.629   3
  -1  -2   4 4862.90 198.705   4
   1  -2   4 4811.31 228.406   3
   1  -2   4 5030.47 170.643   9
  -1   2   4 4860.16 243.108   9
  -1   2   4 5088.29 218.612   2
   1  -2   4 4789.30 188.191   4
  -1  -2   4 4977.45 172.887   9
   1  -2   5 21233.8 540.920   9
  -1  -2   5 23007.0 694.863   3
  -1  -2   5 22489.0 615.735   4
   1   2   5 23241.1 717.325   9
  -1   2   5 23784.2 664.655   2
  -1   2   5 21460.5 670.551   3
   1  -2   5 22783.0 592.881   4
  -1  -2   5 23059.9 710.400   8
  -1   2   5 22201.8 693.010   9
   1  -2   5 23315.9 689.724   3
   1   2   5 23823.0 662.470   6
   1   2   5 23110.7 631.390   2
  -1   2   5 23764.0 696.384   5
   1   2   5 24431.9 711.310   5
  -1   2   5 22873.6 655.843   6
   1  -2   6 2243.66 180.380   8
   1  -2   6 2449.62 179.037   3
  -1   2   6 2532.92 152.203   6
  -1  -2   6 2408.16 181.813   8
  -1   2   6 2623.04 164.528   2
   1   2   6 2591.75 186.521   9
   1   2   6 2623.97 151.674   6
  -1   2   6 2580.06 178.905   9
   1   2   6 2283.71 170.977   3
   1   2   6 2522.86 149.858   2
   1  -2   6 2507.74 111.989   4
  -1  -2   6 2530.08 180.959   3
  -1   2   6 3059.91 194.405   5
  -1   2   6 2390.94 171.649   3
  -1  -2   7 33263.4 981.879   8
   1  -2   7 32822.2 991.399   8
  -1  -2   7 32872.9 986.001   3
  -1   2   7 31804.6 892.202   6
  -1   2   7 33640.9 956.399   9
   1  -2   7 32846.5 979.206   3
   1   2   7 31765.6 970.541   3
   1   2   7 32966.3 906.841   2
   1   2   7 32384.4 965.482   9
  -1   2   7 34353.1 942.903   2
   1  -2   7 33085.6 843.992   7
  -1   2   7 31726.1 961.026   3
   1   2   7 33151.0 881.365   6
  -1  -2   8 4832.84 275.198   8
   1   2   8 4358.99 199.457   6
   1  -2   8 3894.99 255.804   8
   1   2   8 4487.00 254.852   9
   1  -2   8 4299.09 270.670   3
  -1  -2   8 4110.53 156.289   7
  -1   2   8 4157.86 260.331   3
   1  -2   8 4397.40 188.271   7
  -1   2   8 4201.88 241.216   9
   1   2   8 4122.54 222.390   2
  -1   2   8 3875.13 204.039   6
   1   2   8 4535.24 274.030   3
  -1  -2   8 4105.63 267.874   3
   1  -2   9 13850.6 577.030   3
   1   2   9 14337.9 528.944   9
   1  -2   9 14760.2 569.671   8
  -1  -2   9 14572.5 592.681   3
  -1   2   9 13936.9 568.608   3
   1   2   9 13889.0 573.495   3
  -1   2   9 14981.5 476.434   6
   1   2   9 14460.3 447.999   6
  -1  -2   9 13480.3 546.803   8
  -1   2  10 3897.79 201.409   6
   1   2  10 3678.47 275.735   3
  -1   2  10 4037.42 287.634   3
  -1  -2  10 3914.71 260.798   8
   1  -2  10 4123.79 297.669   3
   1   2  10 4151.10 244.306   9
  -1  -2  10 4176.40 299.207   3
   1  -2  10 4148.07 273.676   8
   1   2  11 4728.13 328.198   3
  -1  -2  11 4456.91 285.765   8
  -1   2  11 4020.77 305.809   3
   1  -2  11 4476.32 326.567   3
   1  -2  11 4556.34 288.904   8
  -1  -2  11 4164.79 318.995   3
   1  -3 -12 670.092 144.827   1
  -1  -3 -12 374.046 115.016   1
  -1  -3 -11 910.938 152.409   1
  -1   3 -11 1306.53 200.588   1
   1   3 -11 1452.34 210.610   1
   1  -3 -11 1021.93 164.174   1
   1  -3 -10 1119.37 158.302   1
  -1   3 -10 1000.27 173.379   1
   1  -3 -10 1073.47 137.451   2
   1   3 -10 1172.66 175.852   1
  -1  -3 -10 860.953 149.128   1
  -1  -3  -9 1511.31 174.928   1
   1   3  -9 1210.94 170.313   1
   1  -3  -9 1260.27 162.294   1
  -1   3  -9 1281.92 179.293   1
   1  -3  -9 1335.55 147.705   2
  -1  -3  -9 1477.29 139.730   2
   1  -3  -8 223.519 67.9907   1
  -1  -3  -8 322.236 85.3057   1
  -1  -3  -8 295.838 64.8526   2
  -1   3  -8 307.173 84.6330   1
   1   3  -8 294.041 58.8925   4
   1   3  -8 196.540 74.7646   1
   1  -3  -8 430.086 77.8476   2
  -1  -3  -7 11644.4 416.207   2
  -1  -3  -7 11612.9 467.046   1
   1   3  -7 10503.1 481.793   1
   1   3  -7 10584.8 297.892   9
   1   3  -7 11221.0 406.863   4
  -1   3  -7 10526.8 487.092   1
   1  -3  -7 11531.9 470.956   1
   1  -3  -7 10987.1 434.831   2
  -1   3  -7 12269.8 395.632   4
   1   3  -6 2348.24 120.572   9
   1  -3  -6 2281.45 164.512   2
  -1  -3  -6 2326.13 151.148   2
   1  -3  -6 2033.26 162.908   1
   1  -3  -6 2010.52 72.8461   8
  -1  -3  -6 2111.85 161.383   1
  -1  -3  -6 2312.83 192.070   5
  -1  -3  -6 2565.12 197.896   4
   1   3  -6 2225.33 154.229   4
   1   3  -6 2024.12 176.599   1
  -1   3  -6 2340.69 193.156   1
  -1   3  -6 2419.11 151.450   4
   1  -3  -6 2029.28 75.2785   8
   1  -3  -5 14096.8 547.776   4
  -1  -3  -5 13544.6 525.918   5
   1  -3  -5 14625.4 407.609   8
  -1  -3  -5 13897.1 458.561   2
  -1   3  -5 13498.1 418.534   9
   1  -3  -5 14540.9 480.295   1
   1   3  -5 14824.9 446.872   9
  -1  -3  -5 14904.8 550.218   4
  -1   3  -5 13962.8 405.619   7
  -1   3  -5 13929.8 514.773   1
  -1  -3  -5 14322.7 472.672   1
   1   3  -5 13802.0 509.050   1
  -1  -3  -5 14036.3 368.294   8
   1  -3  -5 13716.0 483.130   2
   1  -3  -5 13761.2 514.921   5
   1   3  -5 13602.3 479.005   4
  -1   3  -5 14753.2 481.861   4
   1   3  -4 1842.57 156.369   3
   1  -3  -4 1843.52 170.858   9
  -1   3  -4 1680.78 133.710   4
  -1   3  -4 1644.28 112.386   9
   1   3  -4 1564.68 130.806   4
   1   3  -4 1697.99 73.5172   7
   1   3  -4 1652.38 133.498   1
   1  -3  -4 1941.38 167.899   4
   1  -3  -4 1683.18 144.295   5
  -1   3  -4 1688.43 135.648   1
  -1  -3  -4 1691.32 111.728   1
  -1  -3  -4 1572.59 95.0104   8
   1  -3  -4 1853.06 140.227   2
  -1  -3  -4 1542.10 116.739   2
  -1   3  -4 1766.49 101.707   7
  -1  -3  -4 1808.48 163.430   9
  -1  -3  -4 1876.49 162.844   4
  -1   3  -4 1690.18 140.413   3
   1   3  -4 1788.22 124.949   9
   1  -3  -4 1596.93 113.170   1
  -1  -3  -4 1649.73 148.373   5
   1   3  -3 33694.6 932.254   9
   1   3  -3 32548.0 952.856   4
  -1   3  -3 35778.0 962.943   4
  -1  -3  -3 34817.5 891.731   8
   1  -3  -3 33938.3 957.660   5
  -1  -3  -3 33662.6 979.546   5
   1   3  -3 33200.8 973.298   3
  -1  -3  -3 36207.6 1014.24   4
   1  -3  -3 34853.8 858.013   1
  -1  -3  -3 33936.3 845.695   1
  -1   3  -3 32478.0 913.779   9
   1   3  -3 32014.2 899.299   1
  -1  -3  -3 34002.2 913.244   2
   1  -3  -3 35159.6 1013.75   4
  -1   3  -3 35060.8 916.622   1
   1  -3  -3 33036.3 941.610   2
  -1   3  -3 34754.5 962.249   3
  -1   3  -2 5348.11 245.964   9
   1   3  -2 5612.75 202.599   1
  -1   3  -2 5728.36 267.096   4
   1  -3  -2 5290.11 251.547   5
   1   3  -2 5180.35 263.996   3
  -1  -3  -2 5118.72 235.131   2
   1  -3  -2 5036.12 156.569   1
   1  -3  -2 5274.16 251.610   2
   1   3  -2 5116.59 249.363   9
  -1  -3  -2 5082.91 227.882   8
  -1   3  -2 5364.46 206.516   1
   1   3  -2 5245.10 261.150   4
  -1  -3  -2 5471.52 271.258   5
   1  -3  -1 13089.4 475.700   5
  -1  -3  -1 13824.3 473.979   8
  -1   3  -1 14186.7 483.855   5
  -1   3  -1 15182.8 517.316   4
   1   3  -1 14607.1 500.956   9
  -1   3  -1 15474.7 393.072   1
  -1  -3  -1 13946.7 506.319   5
   1   3  -1 14330.1 510.976   4
   1  -3  -1 14386.7 504.252   2
  -1  -3  -1 14714.1 487.706   2
   1   3  -1 14768.1 382.190   1
  -1   3  -1 15368.2 503.684   9
  -1   3   0 1978.99 153.142   4
   1  -3   0 1984.55 145.864   5
  -1  -3   0 2009.22 155.294   9
   1  -3   0 2373.56 166.247   9
  -1   3   0 1911.24 150.622   9
  -1   3   0 2222.47 153.786   5
   1   3   0 1939.23 158.173   4
  -1  -3   0 2163.26 163.588   5
   1   3   0 2075.85 158.388   9
   1   3   1 15706.1 544.820   4
   1  -3   1 15501.8 411.020  10
  -1  -3   1 14520.6 531.431   5
   1  -3   1 15835.4 530.921   4
  -1   3   1 14373.8 504.716   5
  -1  -3   1 15191.0 523.813   4
  -1   3   1 15075.3 531.233   9
   1   3   1 14930.2 533.813   9
  -1   3   1 14653.2 392.234  10
   1  -3   1 16436.3 525.317   9
  -1  -3   1 13885.7 498.297   9
  -1   3   1 16321.6 546.659   4
   1  -3   1 14454.1 509.927   5
   1   3   2 6068.72 288.118   5
  -1   3   2 5326.25 281.789   6
  -1   3   2 5528.92 199.097  10
  -1   3   2 5561.21 286.324   4
   1  -3   2 6061.62 277.369   5
   1  -3   2 5817.37 276.725   4
   1  -3   2 5684.72 262.973   9
   1   3   2 5521.54 293.631   9
  -1  -3   2 5770.85 259.577   9
   1   3   2 6265.58 303.874   4
  -1  -3   2 6074.35 295.344   5
   1  -3   2 5837.70 213.253  10
  -1   3   2 5930.93 297.648   9
  -1  -3   2 5848.50 274.387   4
  -1  -3   3 32103.2 938.926   5
  -1   3   3 31823.8 959.595   9
   1  -3   3 32193.0 910.774   4
   1   3   3 32628.7 961.209   4
  -1  -3   3 32399.4 911.200   4
   1  -3   3 31160.9 857.034  10
   1  -3   3 32471.9 885.425   9
   1  -3   3 32435.4 916.295   5
  -1  -3   3 31952.3 880.272   9
   1   3   3 33266.0 977.365   9
   1   3   3 33721.6 939.399   5
  -1   3   3 30928.3 940.905   6
   1  -3   4 1558.06 123.650   4
  -1  -3   4 1687.77 163.590   8
   1   3   4 1628.65 153.138   4
  -1  -3   4 1655.14 128.799   4
  -1   3   4 1663.63 138.974   5
  -1   3   4 1819.24 135.839   2
  -1  -3   4 1686.98 116.184   9
   1  -3   4 1432.35 110.247   9
   1  -3   4 1360.62 130.086   5
  -1   3   4 1285.43 132.380   6
  -1   3   4 1458.43 147.198   9
  -1  -3   4 1580.46 147.387   5
   1   3   4 1518.82 152.547   9
   1   3   4 1836.48 152.865   5
   1  -3   5 13191.0 532.766   8
   1  -3   5 12191.5 383.872   9
   1   3   5 12927.9 427.753   2
   1  -3   5 12422.7 475.272   3
  -1   3   5 11686.8 494.055   9
   1  -3   5 11893.0 416.043   4
  -1  -3   5 12319.0 485.778   5
  -1  -3   5 12726.2 388.685   9
   1  -3   5 12361.6 474.079   5
   1   3   5 12917.0 521.092   9
  -1   3   5 13092.9 455.421   2
  -1   3   5 12002.6 470.284   6
  -1   3   5 13632.0 484.966   5
  -1  -3   5 12336.4 429.435   4
  -1  -3   5 12245.4 513.136   8
   1   3   5 11620.0 466.341   6
  -1  -3   5 12057.7 481.289   3
   1   3   6 2559.34 211.264   9
  -1  -3   6 2194.92 146.943   4
  -1  -3   6 2311.40 203.210   8
   1  -3   6 2134.40 136.033   4
  -1  -3   6 2239.04 190.073   3
   1  -3   6 2249.08 201.682   8
   1  -3   6 2222.65 186.196   3
   1   3   6 2475.52 180.286   6
  -1   3   6 2212.84 163.958   2
   1   3   6 2334.81 153.965   2
  -1   3   6 2218.26 189.108   9
  -1   3   6 2234.86 171.628   6
   1  -3   6 2377.58 108.242   9
   1  -3   7 11340.6 517.245   8
   1   3   7 11150.0 499.149   9
   1  -3   7 11021.8 477.474   3
  -1  -3   7 11185.8 508.585   8
  -1   3   7 10420.8 478.132   9
   1   3   7 11325.1 442.665   6
   1   3   7 11827.0 490.773   3
  -1   3   7 11927.2 455.556   6
   1  -3   7 11678.2 373.059   4
  -1  -3   7 10799.5 389.507   4
  -1   3   7 10984.7 469.230   3
  -1  -3   7 11023.2 488.188   3
   1   3   7 12004.0 424.953   2
  -1   3   8 302.042 81.5636   9
   1   3   8 178.811 62.4534   9
  -1  -3   8 358.461 95.3897   3
  -1  -3   8 178.245 71.9755   8
   1  -3   8 292.088 78.7148   3
  -1   3   8 274.074 77.6253   3
   1   3   8 503.398 83.9831   6
  -1   3   8 204.240 54.4549   6
   1   3   8 324.936 67.4929   2
   1   3   8 258.894 72.3312   3
   1  -3   8 447.609 108.692   8
   1   3   9 1846.20 186.007   9
   1   3   9 1987.26 156.610   6
   1   3   9 2206.53 207.541   3
   1  -3   9 1548.48 193.084   8
  -1  -3   9 2308.84 223.255   8
  -1   3   9 1985.79 161.966   6
  -1  -3   9 2091.48 209.194   3
  -1   3   9 1977.28 193.249   3
   1  -3   9 1855.53 198.954   3
  -1   3   9 2060.98 195.377   9
   1   3  10 1141.81 158.043   3
   1   3  10 761.086 133.294   9
  -1   3  10 1013.32 147.621   3
   1  -3  10 954.642 153.975   8
  -1  -3  10 1160.83 162.206   3
   1  -3  10 1456.62 181.655   3
  -1   3  10 1188.51 127.149   6
  -1  -3  10 1413.97 180.584   8
   1   3  11 1057.00 167.593   3
   1   3  11 1201.10 155.703   9
  -1  -3  11 1085.79 165.226   8
   1  -3  11 1004.93 154.557   8
  -1   3  11 1114.22 167.111   3
   1  -3  12 634.449 129.557   8
  -1  -3  12 468.150 117.823   8
  -1   4 -10 421.404 106.345   1
   1   4 -10 252.964 92.2692   1
   1   4  -9-73.1115 91.9215   1
   1  -4  -9 105.740 57.7521   2
   1  -4  -9 162.616 62.9216   1
  -1  -4  -9 53.5516 60.1056   1
  -1   4  -9 62.8821 80.6781   1
   1  -4  -8-13.5858 36.0609   1
  -1  -4  -8-2.20826 36.9494   1
   1   4  -8 37.0060 33.2325   4
   1  -4  -8 77.0057 51.9324   2
  -1   4  -8 25.1868 61.1139   1
   1   4  -8 72.6426 54.7289   1
  -1  -4  -8 6.11436 32.9023   2
   1  -4  -7 3041.63 204.826   1
   1  -4  -7 3075.24 223.259   2
  -1   4  -7 3541.67 213.080   4
   1   4  -7 3129.92 214.663   4
   1   4  -7 3153.54 240.413   1
  -1  -4  -7 3305.54 211.265   2
  -1  -4  -7 2962.98 257.959   5
  -1   4  -7 3221.84 246.459   1
  -1  -4  -7 3417.68 210.962   1
  -1   4  -6 484.933 51.5970   7
  -1   4  -6 421.921 89.5148   1
   1   4  -6 523.729 72.4583   9
   1  -4  -6 382.858 89.8458   5
  -1  -4  -6 529.222 80.1268   2
  -1  -4  -6 448.989 99.7375   5
   1   4  -6 302.615 72.9120   1
  -1  -4  -6 429.977 37.4533   8
  -1   4  -6 422.554 79.9018   4
   1   4  -6 500.045 90.0429   4
   1  -4  -6 317.775 59.9943   1
   1  -4  -6 452.614 85.8072   2
  -1  -4  -6 456.808 68.3684   1
   1  -4  -6 437.676 49.9899   8
   1  -4  -5 177.750 56.7085   2
  -1   4  -5 170.216 45.9922   9
   1  -4  -5 298.105 53.6431   8
   1   4  -5 164.062 53.7592   9
  -1  -4  -5 115.745 67.4007   5
   1  -4  -5 147.396 59.3033   5
  -1   4  -5 173.712 57.1351   4
   1  -4  -5 216.670 43.8709   1
  -1   4  -5 157.286 35.7503   7
  -1  -4  -5 135.793 33.5253   8
  -1  -4  -5 254.883 47.8545   1
   1   4  -5 112.013 48.1462   1
   1   4  -5 161.905 56.0977   4
  -1   4  -5 192.823 60.7937   1
  -1  -4  -5 303.881 57.2350   2
   1   4  -4 124.875 34.3335   1
  -1  -4  -4 136.103 42.8509   8
   1  -4  -4 80.3461 23.8720   1
  -1   4  -4 84.2017 37.1003   1
   1   4  -4 361.671 75.0404   9
   1   4  -4 94.0861 26.3436   7
  -1   4  -4 83.9225 46.8305   4
   1   4  -4 130.373 56.4223   4
  -1  -4  -4 94.9655 20.8684   1
  -1  -4  -4 67.1691 50.5503   5
  -1   4  -4 228.463 58.7021   9
  -1   4  -4 129.920 42.6939   7
   1  -4  -4 133.229 56.6398   2
   1  -4  -4 198.974 68.8585   5
  -1  -4  -4 133.108 46.9487   2
  -1   4  -3 1538.17 110.223   1
   1   4  -3 1475.67 151.709   4
   1   4  -3 1622.23 143.182   9
  -1  -4  -3 1328.78 126.062   2
   1  -4  -3 1194.31 131.718   2
  -1   4  -3 1620.49 150.116   4
   1  -4  -3 1307.61 144.478   5
   1   4  -3 1461.05 106.143   1
  -1   4  -3 1456.11 135.740   9
  -1  -4  -3 1073.28 134.451   5
  -1   4  -2 300.812 67.5129   9
   1  -4  -2 237.642 71.2840   5
   1  -4  -2 477.689 90.0127   2
  -1   4  -2 416.116 84.9664   4
   1   4  -2 309.097 40.2486   1
  -1  -4  -2 544.125 102.472   5
  -1   4  -2 276.603 63.8148   3
  -1   4  -2 358.784 43.3153   1
   1   4  -2 326.298 71.5172   4
  -1  -4  -2 303.644 64.0896   2
   1   4  -2 356.808 81.9026   9
  -1  -4  -2 347.929 70.1618   8
   1   4  -1 442.812 87.1325   9
  -1   4  -1 320.717 71.9597   5
  -1  -4  -1 355.833 74.4691   2
  -1   4  -1 435.617 88.8919   4
   1   4  -1 487.377 92.7895   5
  -1   4  -1 514.953 92.1467   9
  -1   4  -1 472.886 83.5019   3
  -1  -4  -1 318.519 80.4737   5
  -1  -4  -1 421.912 78.6616   8
   1  -4  -1 486.325 88.0728   2
   1  -4  -1 528.724 87.1881   5
   1   4  -1 386.259 84.4596   4
  -1  -4   0 3848.25 249.976   5
  -1   4   0 3880.12 251.462   4
   1  -4   0 3768.30 233.916   5
   1   4   0 3902.52 249.734   9
  -1   4   0 3236.75 217.253   5
   1   4   0 3607.20 247.610   4
  -1  -4   0 3926.41 245.027   8
   1  -4   0 4128.51 255.659   2
   1   4   0 4243.27 260.011   5
  -1   4   0 3798.19 244.859   9
  -1  -4   1 394.364 94.9804   8
   1   4   1 518.632 98.8741   4
  -1  -4   1 453.999 83.9406   9
   1   4   1 442.776 91.3212   9
  -1   4   1 534.020 94.6390   4
  -1   4   1 393.540 79.0378   5
  -1   4   1 416.861 87.9620   9
   1  -4   1 525.565 95.3767   9
   1   4   1 476.446 86.0502   5
  -1  -4   1 437.930 95.6987   5
   1  -4   1 379.789 86.5762   5
   1   4   2 306.373 79.1335   4
  -1   4   2 391.536 90.2236   9
  -1   4   2 360.758 33.5697  10
   1  -4   2 355.286 42.5028  10
  -1  -4   2 316.832 28.3720  10
  -1   4   2 483.423 84.7598   5
  -1   4   2 529.356 98.7126   6
   1  -4   2 359.195 80.7448   5
   1   4   2 329.212 81.7991   9
  -1  -4   2 445.058 78.4988   9
  -1  -4   2 503.830 95.0891   8
   1  -4   2 378.278 78.0284   9
  -1  -4   2 422.008 97.3513   5
   1   4   3 1591.23 169.055   4
   1   4   3 1514.97 77.0248  10
   1  -4   3 1498.60 105.622  10
   1  -4   3 1477.74 146.055   4
  -1  -4   3 1673.61 145.967   9
   1  -4   3 1616.62 144.832   9
  -1  -4   3 1486.26 164.296   5
   1   4   3 1732.24 81.1726  10
   1   4   3 1890.83 184.870   9
  -1   4   3 1577.88 97.9520  10
   1  -4   3 1608.69 161.827   5
  -1   4   3 1696.99 174.595   9
   1  -4   3 1873.29 187.045   8
  -1   4   3 1594.55 169.978   6
  -1  -4   3 1569.25 97.1086  10
  -1  -4   3 1639.50 176.934   8
  -1   4   3 1657.52 161.505   5
   1  -4   4 170.591 73.5313   8
   1  -4   4 64.5694 47.2799   5
  -1  -4   4 98.9314 64.2098   8
   1  -4   4 45.2713 43.7921   9
   1  -4   4 155.324 40.7244  10
  -1   4   4 117.146 56.3326   6
  -1  -4   4 120.003 54.3532   5
  -1  -4   4 134.539 49.6810   9
   1   4   4 170.060 80.9008   9
   1  -4   4 127.242 54.7009   4
  -1   4   4 212.655 55.6336  10
   1   4   4 234.053 81.3696   4
  -1   4   4 159.862 76.2238   9
   1  -4   5 414.607 114.690   8
   1  -4   5 165.605 70.5280   5
   1   4   5 471.145 105.774   6
   1  -4   5 296.183 67.4509   4
  -1   4   5 160.843 73.3931   6
  -1  -4   5 213.978 73.0847   5
  -1  -4   5 238.190 59.8269   9
   1  -4   5 148.598 42.6249   9
  -1   4   5 362.706 96.9961   9
   1   4   5 293.372 91.9657   9
   1  -4   5 259.207 59.5813  10
  -1  -4   5 159.800 78.6140   8
  -1   4   6 348.829 98.2554   9
   1  -4   6 594.770 111.972   5
  -1  -4   6 408.585 101.236   5
   1   4   6 385.653 103.045   9
   1  -4   6 435.517 60.3678   9
   1   4   6 466.497 96.8895   6
  -1  -4   6 385.874 61.0035   9
   1  -4   6 389.463 104.634   8
  -1   4   6 465.853 97.2184   6
  -1  -4   6 500.875 113.534   8
   1  -4   6 521.250 81.6587   4
  -1  -4   6 402.494 73.5330   4
   1   4   7 3108.09 240.804   6
   1   4   7 3521.00 276.353   9
  -1  -4   7 2979.57 273.219   8
   1  -4   7 3558.25 268.516   5
  -1   4   7 3316.99 251.459   6
   1  -4   7 3409.90 288.978   8
  -1  -4   7 3604.82 281.089   5
  -1   4   7 3128.52 262.171   9
   1   4   8 108.351 58.1222   6
   1  -4   8 2.00804 76.9741   8
  -1   4   8 40.3623 48.6326   6
  -1   4   8 23.7723 52.1235   3
  -1  -4   8 60.8547 58.7490   5
   1  -4   8 43.2593 64.8459   5
   1   4   8 49.7691 77.5710   9
  -1   4   8 29.8870 66.3231   9
   1  -4   8-51.8554 73.7389   3
   1   4   8 24.2002 45.4653   3
  -1  -4   8 79.4795 83.4917   8
   1   4   9-11.4739 62.8203   9
   1   4   9 53.9452 64.1802   3
   1  -4   9 176.849 101.492   8
  -1   4   9-69.6805 73.7219   9
   1  -4   9 25.3664 61.1445   5
  -1   4   9 18.0807 48.3091   6
   1   4   9 36.2939 63.5036   6
   1  -4   9 45.6805 56.8240   3
  -1  -4   9 6.34244 61.2416   5
  -1  -4   9 30.8010 72.0835   8
  -1   4   9 87.8884 72.6757   3
  -1   4  10-19.9026 71.7606   3
   1   4  10 88.6073 72.2545   9
   1   4  10 253.564 98.5149   3
  -1   4  10 109.110 73.0647   9
  -1  -4  10 143.514 88.2366   8
   1  -4  10 247.734 100.299   5
   1  -4  10 265.125 115.593   8
   1   4  11-9.05933 65.7741   9
   1   5  -9 1715.88 202.972   1
  -1   5  -9 1747.77 209.248   1
  -1   5  -8 106.254 55.3797   1
   1   5  -8 124.106 62.6781   1
   1  -5  -8 149.080 65.2798   2
   1   5  -7 2019.26 192.837   1
  -1  -5  -7 2085.80 234.937   5
   1   5  -7 2150.68 193.352   4
   1  -5  -7 2234.32 205.322   2
  -1   5  -7 2223.84 201.373   1
  -1   5  -6 1223.20 144.182   4
   1  -5  -6 1018.94 153.487   5
   1  -5  -6 1495.58 167.885   2
  -1  -5  -6 1489.88 192.987   5
  -1  -5  -6 1521.54 156.032   2
   1   5  -6 1293.20 151.473   4
   1   5  -6 1300.36 140.083   1
  -1   5  -6 1336.23 140.632   1
  -1  -5  -5 6559.96 339.126   2
   1  -5  -5 5186.65 347.862   5
   1   5  -5 6227.91 352.377   4
  -1   5  -5 6203.14 299.342   1
   1  -5  -5 6207.09 290.853   8
   1  -5  -5 6144.56 352.426   2
  -1   5  -5 6103.03 309.047   9
  -1   5  -5 6688.88 352.887   4
   1   5  -5 6663.51 304.860   1
  -1  -5  -5 5203.88 362.348   5
   1   5  -5 6173.29 312.459   9
  -1   5  -4 292.090 57.3410   7
  -1  -5  -4 222.748 70.0683   2
  -1   5  -4 261.540 49.8734   1
   1   5  -4 311.303 57.8611   1
   1  -5  -4 257.341 71.3210   8
  -1   5  -4 270.576 62.9186   9
   1  -5  -4 177.437 67.7418   2
   1  -5  -4 321.757 89.6484   5
  -1   5  -4 263.859 76.4983   4
   1   5  -4 333.842 75.4915   9
  -1  -5  -4 226.796 63.1866   8
   1   5  -4 176.607 72.4920   4
  -1  -5  -4 243.950 91.0069   5
   1   5  -3 1383.22 88.3586   1
  -1   5  -3 1329.40 90.0229   1
  -1  -5  -3 1159.23 155.432   5
  -1   5  -3 1305.48 143.225   9
   1  -5  -3 1369.31 144.344   8
   1  -5  -3 1124.08 141.615   2
  -1  -5  -3 1114.71 132.032   2
   1   5  -3 1403.75 164.950   4
  -1   5  -3 1276.15 152.887   4
   1  -5  -3 1084.09 144.641   5
   1   5  -3 1598.67 157.908   9
  -1  -5  -3 968.121 118.562   8
   1  -5  -2 443.112 89.2932   5
   1   5  -2 566.221 107.517   4
  -1  -5  -2 371.207 77.1852   8
  -1  -5  -2 540.382 107.821   5
  -1   5  -2 682.911 109.800   9
  -1   5  -2 501.372 98.6528   4
   1  -5  -2 581.600 104.851   2
   1   5  -2 511.563 87.9323   9
  -1  -5  -2 541.655 95.0200   2
   1  -5  -2 543.081 100.332   8
  -1  -5  -1 3655.62 252.576   8
   1   5  -1 3599.91 256.825   9
  -1  -5  -1 3635.82 249.162   2
   1   5  -1 3508.66 266.533   4
  -1   5  -1 3392.25 246.668   9
   1  -5  -1 3687.65 257.025   8
  -1  -5  -1 3424.42 256.742   5
  -1   5  -1 3496.73 262.478   4
   1  -5  -1 3338.34 252.445   2
   1  -5  -1 3609.95 251.787   5
  -1  -5   0 1139.33 142.149   2
   1   5   0 1078.57 145.159   9
   1   5   0 934.286 140.648   4
  -1   5   0 1093.20 150.628   4
  -1  -5   0 1094.68 144.700   5
  -1  -5   0 929.426 128.578   8
   1  -5   0 1113.99 147.002   2
   1  -5   0 1223.26 152.683   8
   1  -5   0 979.643 129.189   5
  -1   5   0 1113.04 144.956   9
   1   5   1 3703.65 276.358   4
  -1   5   1 3462.27 269.820   6
   1  -5   1 3901.11 277.281   8
   1  -5   1 3920.28 281.014   2
   1   5   1 3608.45 273.374   9
  -1  -5   1 3671.55 269.982   8
  -1   5   1 3590.38 263.900   9
   1  -5   1 3824.83 258.449   5
  -1  -5   1 3566.30 265.130   5
  -1  -5   2 359.969 97.4514   8
   1  -5   2 694.818 128.461   8
  -1  -5   2 587.703 115.556   5
   1  -5   2 765.298 122.475   5
   1   5   2 969.711 141.404   4
  -1   5   2 672.108 121.477   9
   1   5   2 824.377 138.676   9
  -1   5   2 701.355 124.004   6
   1   5   3 1678.74 187.652   9
  -1   5   3 1307.72 170.396   6
   1  -5   3 1330.86 168.926   8
  -1   5   3 1612.40 186.036   9
  -1  -5   3 1498.28 185.354   8
   1   5   3 1692.08 188.064   4
  -1  -5   3 1294.10 170.801   5
   1  -5   3 1455.14 173.365   5
  -1   5   4 200.775 74.8724   6
  -1   5   4 172.701 78.9993   9
   1  -5   4 170.575 82.9079   5
   1   5   4 193.464 68.1890   6
  -1  -5   4 232.361 92.8016   8
   1   5   4 294.758 103.495   9
  -1  -5   4 131.975 73.0306   5
   1  -5   4 312.294 104.608   8
   1   5   5 6582.15 405.461   9
  -1   5   5 5926.89 380.627   6
  -1  -5   5 6200.27 402.266   5
   1   5   5 6232.03 386.068   6
  -1   5   5 6803.61 408.083   9
   1  -5   5 6766.21 417.683   8
   1  -5   5 5947.66 381.334   5
  -1  -5   5 6424.53 410.382   8
  -1  -5   6 1208.09 185.142   8
   1   5   6 1476.24 193.870   9
  -1   5   6 1192.46 167.485   9
  -1   5   6 1292.50 174.328   6
   1   5   6 1174.13 164.515   6
   1  -5   6 1341.86 191.130   8
   1  -5   6 1455.03 194.125   5
  -1  -5   6 1214.79 179.886   5
  -1   5   7 1754.44 205.143   6
   1  -5   7 2033.10 241.502   8
   1   5   7 1861.22 216.847   9
   1   5   7 1956.18 214.799   6
  -1  -5   7 2010.45 233.823   5
  -1  -5   7 2412.06 258.450   8
  -1   5   7 1909.60 225.607   9
   1  -5   7 2040.83 229.016   5
  -1  -5   8 221.064 98.8635   8
  -1  -5   8 157.060 89.1520   5
   1  -5   8 161.046 105.007   8
   1   5   8 111.478 84.6173   9
   1   5   8 29.4559 54.5433   6
  -1   5   8 181.128 84.5814   3
   1  -5   8 392.280 112.673   5
  -1   5   8 168.065 85.1460   9
  -1   5   8 221.178 88.9486   6
  -1   5   9 1989.01 231.339   3
   1   5   9 1540.26 182.558   6
  -1   5   9 1689.16 204.061   6
   1  -6  -6 782.386 141.043   2
   1  -6  -6 426.789 118.649   5
  -1  -6  -6 446.764 112.178   5
   1   6  -6 628.127 119.841   4
  -1   6  -6 700.466 132.776   6
  -1  -6  -5 4872.44 366.347   5
   1   6  -5 4276.52 313.375   4
   1  -6  -5 4279.47 338.449   5
   1  -6  -5 4568.31 328.972   2
  -1   6  -5 5337.91 352.526   6
   1   6  -4 2699.72 225.327   9
  -1  -6  -4 2843.70 240.027   2
  -1  -6  -4 3262.38 289.141   5
   1   6  -4 2702.79 248.857   4
   1  -6  -4 2823.90 260.078   5
  -1   6  -4 3446.74 282.653   6
   1  -6  -4 2939.81 260.031   2
  -1   6  -4 2899.20 234.306   9
   1   6  -3 4665.13 315.288   9
   1  -6  -3 5619.06 363.134   5
  -1   6  -3 5440.51 332.932   9
   1  -6  -3 5041.28 343.106   2
  -1  -6  -3 5096.54 359.178   5
   1   6  -3 5221.63 356.845   4
   1  -6  -3 5555.07 326.170   8
  -1  -6  -3 5243.56 332.477   2
  -1   6  -3 6101.41 386.249   6
  -1  -6  -3 5701.36 328.777   8
   1   6  -2 806.830 129.533   9
   1  -6  -2 735.902 125.894   8
  -1  -6  -2 810.710 127.558   2
  -1  -6  -2 612.807 124.332   5
  -1  -6  -2 571.089 112.785   8
  -1   6  -2 652.679 133.834   6
   1  -6  -2 651.053 117.168   5
   1   6  -2 729.326 136.700   4
   1  -6  -2 754.956 130.801   2
  -1   6  -2 692.418 124.162   9
  -1  -6  -1 6034.07 369.067   8
  -1   6  -1 6143.80 393.048   6
   1   6  -1 6503.18 400.359   4
  -1  -6  -1 5868.00 374.036   5
   1   6  -1 5771.88 369.150   9
   1  -6  -1 6331.94 384.286   2
  -1  -6  -1 6532.88 375.126   2
   1  -6  -1 6134.26 366.035   8
  -1   6  -1 6141.89 373.341   9
   1  -6  -1 6204.32 371.258   5
  -1   6   0 1092.58 158.660   9
  -1   6   0 1102.72 162.150   6
   1  -6   0 1089.12 152.618   8
   1  -6   0 893.036 136.989   5
   1   6   0 1223.99 173.295   4
  -1  -6   0 1021.38 152.538   8
   1   6   0 1039.96 150.682   9
  -1  -6   0 1294.30 162.938   2
  -1  -6   0 846.088 142.545   5
   1  -6   0 1515.35 182.298   2
  -1  -6   1 5145.23 355.989   8
   1   6   1 5412.22 371.888   4
  -1   6   1 6079.84 379.771   9
  -1  -6   1 5513.53 357.607   2
   1   6   1 5817.55 379.155   9
  -1   6   1 5669.42 379.063   6
   1  -6   1 5352.81 358.704   8
   1  -6   1 5495.26 361.103   2
  -1  -6   1 5528.02 362.064   5
   1  -6   1 5059.50 330.451   5
  -1  -6   2 704.652 135.437   5
  -1  -6   2 899.859 148.153   8
  -1   6   2 745.219 147.104   6
   1  -6   2 873.538 144.143   2
   1   6   2 1019.96 159.101   4
   1  -6   2 738.612 137.491   8
   1  -6   2 811.266 132.352   5
  -1   6   2 917.420 151.263   9
   1   6   2 610.864 136.131   9
  -1  -6   3 5661.74 384.052   5
   1   6   3 6500.20 408.418   9
  -1  -6   3 5750.12 394.927   8
  -1   6   3 5368.27 377.936   9
   1  -6   3 5490.77 364.423   5
   1   6   3 5542.80 380.844   6
  -1   6   3 6363.36 406.969   6
   1  -6   3 5465.94 383.591   8
  -1   6   4 2658.23 265.937   9
  -1  -6   4 2913.04 286.811   5
   1  -6   4 2851.69 282.840   8
  -1   6   4 3097.43 283.447   6
   1   6   4 3751.05 313.505   9
   1  -6   4 3006.73 275.646   5
   1   6   4 3260.17 291.458   6
  -1  -6   4 3088.86 295.525   8
   1   6   5 5036.32 362.269   6
  -1   6   5 4739.43 359.197   6
  -1  -6   5 4343.17 364.700   5
   1  -6   5 4497.12 357.453   5
  -1  -6   6 763.927 163.704   5
   1  -6   6 616.164 152.930   5
   1   6   6 671.689 139.202   6
   1  -7  -3 1817.00 213.904   5
   1  -7  -2 1015.55 161.727   2
  -1   7  -2 1144.50 159.566   9
   1   7  -2 950.306 152.809   9
   1  -7  -2 986.968 158.226   5
  -1  -7  -1 2728.74 246.446   2
   1  -7  -1 2775.54 264.087   2
   1  -7  -1 2970.23 268.382   8
   1  -7  -1 2993.73 265.732   5
  -1  -7  -1 2836.36 261.912   8
  -1  -7   0 2453.84 245.282   2
   1  -7   0 2097.35 220.392   5
  -1  -7   0 2328.80 246.567   8
  -1  -7   0 2097.48 228.853   5
   1  -7   0 2247.18 237.368   2
   1  -7   0 2277.20 241.012   8
   1  -7   1 2401.13 237.160   5
  -1  -7   1 2478.02 251.631   2
   1  -7   2 1191.33 165.247   5
   1  -7   3 1568.69 197.446   5
   2   0 -12 3010.01 330.440   1
  -2   0 -12 3599.65 360.897   1
   2   0 -11 5025.26 400.881   1
  -2   0 -11 4515.05 385.205   1
  -2   0 -10 5307.27 400.888   1
   2   0 -10 6103.04 421.909   1
   2   0 -10 6014.65 238.440   4
   2   0  -9 3328.71 151.418   9
   2   0  -9 3261.61 290.641   1
   2   0  -9 3124.82 148.132   6
   2   0  -9 3032.30 158.052   4
  -2   0  -9 2974.46 273.990   1
   2   0  -8 1169.28 162.905   1
   2   0  -8 1132.60 87.3748   9
  -2   0  -8 960.051 145.257   1
  -2   0  -8 1084.78 62.4485   9
   2   0  -8 1024.63 76.5805   6
   2   0  -7 29537.2 812.907   9
  -2   0  -7 30929.1 757.944   9
   2   0  -7 32275.5 914.391   3
  -2   0  -7 29775.3 991.686   1
   2   0  -7 30999.8 792.359   6
   2   0  -6 15584.8 444.468   9
   2   0  -6 16457.7 516.575   3
   2   0  -6 14739.0 427.631   6
  -2   0  -6 14862.1 400.299   9
   2   0  -6 15302.6 460.600   8
  -2   0  -6 14284.5 566.821   1
   2   0  -5 22675.7 595.433   6
   2   0  -5 22871.4 595.612   9
  -2   0  -5 23116.0 569.187   9
   2   0  -5 22088.9 609.358   8
   2   0  -5 23038.5 664.871   2
  -2   0  -5 21278.7 719.140   1
   2   0  -4 19801.6 528.229   9
   2   0  -4 20660.5 586.851   2
   2   0  -4 20926.4 536.434   6
  -2   0  -4 20135.0 634.956   1
   2   0  -4 19640.4 539.729   8
  -2   0  -4 20871.1 512.129   9
   2   0  -3 19221.7 495.458   6
   2   0  -3 19269.2 530.157   2
  -2   0  -3 18375.0 567.822   1
   2   0  -3 18688.0 494.759   8
  -2   0  -3 19125.7 474.929   9
  -2   0  -2 11478.4 300.226   9
   2   0  -2 11215.3 312.232   8
   2   0  -2 11571.7 330.430   2
  -2   0  -2 11320.3 358.106   1
  -2   0  -1 85204.0 1689.95   7
   2   0  -1 87984.5 1692.75   2
  -2   0  -1 94844.9 1679.73   5
   2   0  -1 85893.5 1687.79   8
  -2   0   1 79800.6 1917.54   6
  -2   0   1 78383.0 1903.27   3
   2   0   2 14693.5 376.243   9
   2   0   2 14804.0 357.471   4
   2   0   2 15453.0 401.195   3
  -2   0   2 14771.1 392.332   3
  -2   0   2 14686.3 387.562   6
   2   0   3 23040.8 597.771   3
   2   0   3 22572.6 549.414   9
  -2   0   3 22267.3 571.159   8
  -2   0   3 21080.4 562.385   6
  -2   0   3 22634.0 590.631   3
  -2   0   4 21516.8 567.382   8
  -2   0   4 21285.8 600.482   3
   2   0   4 21744.6 607.819   3
  -2   0   4 20511.2 556.592   6
   2   0   4 22510.7 551.126   9
   2   0   4 21730.8 577.258   2
   2   0   5 21195.0 574.213   9
   2   0   5 21899.8 647.287   3
   2   0   5 23207.2 618.546   2
  -2   0   5 22250.0 593.657   8
  -2   0   5 22482.2 643.447   3
   2   0   6 13518.0 391.218   8
   2   0   6 12387.7 449.962   3
  -2   0   6 12059.9 442.325   3
  -2   0   6 12655.9 391.983   8
  -2   0   6 13274.4 453.806   2
   2   0   6 12670.7 422.008   2
   2   0   6 13196.7 361.543   9
   2   0   7 34695.3 949.514   7
  -2   0   7 34551.6 899.858   8
  -2   0   7 36790.3 995.359   2
   2   0   7 33792.3 837.759   9
   2   0   7 34237.0 881.499   8
   2   0   7 35568.6 953.695   2
  -2   0   7 32734.1 976.542   3
   2   0   7 34414.8 994.303   3
   2   0   8 346.767 63.4283   2
  -2   0   8 477.985 63.8174   8
   2   0   8 426.398 57.8577   8
   2   0   8 436.322 73.3272   7
  -2   0   8 495.338 89.3615   3
   2   0   8 391.259 79.9094   3
   2   0   9 3202.49 236.032   3
   2   0   9 3583.61 166.044   8
  -2   0   9 3242.77 233.385   3
  -2   0   9 3409.83 179.648   8
   2   0  10 6450.49 247.454   8
  -2   0  10 6576.75 272.354   8
  -2   0  10 6567.60 364.239   3
   2   0  10 6895.71 378.389   3
  -2   0  11 4348.23 306.815   3
   2   0  11 4224.13 303.584   3
  -2   0  12 3423.44 286.177   3
   2   0  12 3450.69 292.358   3
  -2   1 -12 1803.24 258.257   1
   2   1 -12 1557.74 242.893   1
   2  -1 -12 1739.05 256.481   1
  -2  -1 -12 1873.56 256.930   1
   2  -1 -11 1155.76 194.500   1
  -2  -1 -11 1236.19 199.964   1
   2   1 -11 1824.73 246.062   1
  -2   1 -11 1611.25 252.433   1
  -2  -1 -10 7644.29 480.152   1
   2  -1 -10 7528.03 473.831   1
   2   1 -10 7482.91 471.250   1
  -2   1 -10 7464.90 475.060   1
   2   1  -9 4555.56 338.970   1
  -2  -1  -9 3712.05 302.565   1
   2  -1  -9 3656.46 300.871   1
   2   1  -9 3989.02 163.200   6
  -2   1  -9 3881.98 308.824   1
   2   1  -9 3923.37 164.805   4
  -2  -1  -9 3994.68 158.613   4
  -2  -1  -8 2535.17 231.835   1
   2   1  -8 2735.95 136.004   6
  -2  -1  -8 3022.09 140.212   4
   2   1  -8 2807.85 139.435   4
  -2  -1  -8 2600.66 151.000   9
   2  -1  -8 3081.45 258.016   1
   2   1  -8 2889.43 251.831   1
   2  -1  -8 2916.33 202.110   2
  -2   1  -8 2830.21 246.511   1
  -2  -1  -7 6629.87 361.601   1
   2  -1  -7 6452.40 300.148   2
  -2  -1  -7 6792.07 236.604   4
   2   1  -7 6187.57 231.935   4
   2   1  -7 6876.99 235.730   6
   2  -1  -7 6427.85 249.994   6
  -2   1  -7 6283.42 359.823   1
   2   1  -7 6036.56 186.975   9
   2  -1  -7 6248.11 290.293   9
  -2  -1  -7 6363.95 251.632   9
   2   1  -7 6080.78 178.154   9
   2  -1  -7 6428.34 264.883   4
   2  -1  -6 9843.13 381.941   2
   2  -1  -6 10432.0 387.634   9
   2   1  -6 10326.3 283.802   9
   2   1  -6 10300.1 281.249   9
   2   1  -6 9976.36 322.060   6
   2  -1  -6 10492.3 304.386   8
  -2  -1  -6 10745.2 333.812   4
   2  -1  -6 10783.5 345.907   6
   2   1  -6 10523.7 328.767   4
  -2  -1  -6 9854.33 441.227   1
  -2   1  -6 11077.2 401.983   3
  -2  -1  -6 10718.7 349.507   9
  -2   1  -6 10404.8 456.023   1
   2   1  -5 16128.9 402.241   9
  -2   1  -5 14413.3 374.155   6
   2  -1  -5 16488.1 497.626   9
  -2  -1  -5 15512.9 543.996   1
   2  -1  -5 15275.7 451.433   6
   2  -1  -5 16036.2 496.837   2
  -2   1  -5 15101.1 554.698   1
   2   1  -5 16063.6 442.616   4
  -2  -1  -5 16614.8 452.030   4
   2   1  -5 15587.5 436.977   6
   2  -1  -5 15280.6 408.745   8
  -2  -1  -5 15737.8 461.881   9
   2  -1  -4 35234.2 838.550   8
   2   1  -4 35372.5 871.278   4
   2   1  -4 35757.2 916.957   8
  -2  -1  -4 35568.0 880.532   4
  -2   1  -4 35777.3 980.125   1
  -2  -1  -4 35346.7 857.699   2
   2   1  -4 36074.8 837.846   9
  -2   1  -4 35650.5 911.092   3
   2  -1  -4 36149.4 916.649   9
  -2  -1  -4 34355.6 889.402   9
   2  -1  -4 35456.6 915.470   2
  -2  -1  -4 34989.1 960.309   1
  -2   1  -4 30966.2 816.415   6
   2  -1  -4 34800.8 881.835   6
  -2  -1  -3 48493.5 1191.56   4
  -2  -1  -3 47863.5 1201.71   9
   2   1  -3 47703.3 1212.55   8
  -2  -1  -3 47877.7 1221.46   5
  -2   1  -3 50462.6 1152.83   6
  -2   1  -3 48612.7 1259.98   1
   2  -1  -3 49019.7 1213.46   9
  -2   1  -3 49267.3 1202.44   3
   2  -1  -3 47927.1 1193.70   6
  -2   1  -3 46720.0 1175.86   7
   2   1  -3 50375.2 1188.09   4
   2  -1  -3 49106.2 1214.97   2
   2  -1  -3 47448.1 1156.17   8
  -2  -1  -3 49340.6 1243.02   1
  -2  -1  -3 51142.1 1152.67   2
   2   1  -3 49337.7 1160.56   9
   2   1  -2 11112.3 325.320   4
   2   1  -2 11260.0 310.419   9
  -2  -1  -2 10632.4 338.774   5
  -2  -1  -2 11012.6 340.940   1
  -2   1  -2 10505.9 316.262   3
   2  -1  -2 11156.4 336.540   2
   2   1  -2 11039.4 337.670   8
  -2   1  -2 11202.9 307.197   6
  -2   1  -2 11333.0 316.762   7
  -2  -1  -2 11445.8 280.557   2
  -2  -1  -2 11220.7 288.499   8
  -2  -1  -2 11288.8 329.562   4
  -2   1  -2 10997.1 358.442   1
  -2  -1  -1 46158.7 1119.37   5
  -2   1  -1 43962.8 1109.44   1
  -2  -1  -1 44786.2 1076.18   8
  -2   1  -1 45859.8 1072.86   3
   2  -1  -1 45720.4 1105.97   2
  -2   1  -1 46454.0 1091.49   6
  -2   1  -1 44296.8 1114.68  10
   2   1  -1 44484.1 1105.27   8
   2  -1  -1 46462.3 1069.47   5
   2   1  -1 46499.0 1093.68   9
  -2  -1  -1 45605.9 1090.09   1
   2   1  -1 46165.2 1103.15   4
   2   1  -1 46526.6 1052.12   7
   2   1   0 25012.7 618.033   4
  -2  -1   0 23636.4 649.975   5
   2   1   0 25076.6 589.380  10
  -2   1   0 24567.5 611.927   9
  -2   1   0 24026.0 581.546   5
   2   1   0 21197.9 606.358   9
  -2  -1   0 23598.6 592.339  10
   2   1   0 23617.6 606.410   8
   2  -1   0 23843.1 602.819   1
  -2   1   0 25236.3 614.791   6
  -2   1   0 24799.5 621.051  10
   2  -1   0 23771.1 580.530   5
   2  -1   0 26238.0 636.680   2
  -2  -1   1 44649.2 1061.62   5
  -2   1   1 44789.0 1046.12  10
  -2   1   1 42356.3 1041.62   9
   2   1   1 42373.8 1010.20   8
   2   1   1 45455.0 1043.68   4
   2  -1   1 42343.1 1021.98   4
   2   1   1 40323.5 1020.88  10
   2  -1   1 43405.4 1008.09   3
  -2   1   1 43271.6 1002.91   5
   2  -1   1 41232.1 1016.23   9
   2   1   1 40850.9 1026.13   1
   2   1   1 43098.0 1042.05   9
  -2   1   1 42354.7 1037.60   6
   2  -1   2 13355.2 369.690   3
   2  -1   2 13769.1 358.534   4
   2   1   2 13621.4 389.399   9
  -2  -1   2 13384.6 375.343   4
  -2  -1   2 13061.7 359.072   9
   2   1   2 14048.7 390.666   4
  -2   1   2 13131.7 378.534   6
   2   1   2 13184.0 328.361   2
   2   1   2 13271.0 335.879   8
   2   1   2 13227.9 392.008   1
  -2   1   2 13504.5 388.743   9
   2  -1   2 12731.2 344.696   9
  -2   1   2 14012.3 372.213   5
  -2  -1   2 13333.6 390.686   3
   2   1   3 50311.4 1212.28   9
  -2  -1   3 48216.7 1210.49   3
   2   1   3 50594.5 1146.93   2
  -2  -1   3 49262.7 1179.59   4
   2  -1   3 47621.0 1139.91   4
   2   1   3 46313.3 1199.68   4
   2   1   3 47566.4 1117.51   8
   2  -1   3 47472.7 1127.42   9
  -2   1   3 48275.9 1185.80   6
  -2   1   3 49585.2 1198.55   5
  -2   1   3 48461.8 1187.55   3
   2   1   3 49192.6 1230.97   1
  -2   1   3 48482.0 1198.94   9
   2  -1   3 50079.8 1198.71   3
   2  -1   3 49995.9 1175.45   7
   2   1   4 38262.5 928.701   2
  -2   1   4 40212.2 993.926   5
   2   1   4 37554.9 991.415   9
   2  -1   4 37838.8 948.576   7
  -2   1   4 37001.0 973.828   3
  -2  -1   4 37095.4 980.466   8
  -2   1   4 37672.6 967.832   9
   2   1   4 37916.4 961.365   4
  -2   1   4 39813.8 992.292   2
   2   1   4 38782.2 1034.03   1
  -2   1   4 36990.6 954.751   6
   2  -1   4 37890.8 982.441   3
  -2  -1   4 37335.3 994.597   3
  -2   1   5 15918.0 504.085   3
  -2  -1   5 17275.8 508.864   8
   2   1   5 16637.7 441.414   6
   2   1   5 16638.6 526.413   3
  -2   1   5 15971.2 471.536   6
   2  -1   5 16790.4 474.768   7
  -2   1   5 16603.0 510.294   2
  -2  -1   5 16137.6 520.845   3
   2   1   5 16365.6 515.539   9
   2  -1   5 15695.0 509.384   3
   2   1   5 15901.3 461.908   2
  -2  -1   6 9933.60 358.557   8
  -2   1   6 10757.6 394.942   5
   2  -1   6 9853.96 335.191   7
  -2   1   6 9862.56 375.485   3
   2   1   6 9980.29 286.478   6
   2   1   6 8986.40 324.201   2
  -2  -1   6 10143.5 390.361   2
  -2   1   6 10068.2 373.439   2
   2  -1   6 9222.87 371.664   3
   2   1   6 9792.83 363.043   9
  -2   1   6 10292.8 334.189   6
   2   1   6 10037.8 387.735   3
  -2  -1   6 10091.1 387.296   3
  -2  -1   7 5868.87 294.808   3
   2   1   7 6038.94 261.962   9
   2  -1   7 6588.35 287.611   8
  -2   1   7 6069.89 238.531   6
  -2   1   7 6071.94 283.277   2
   2   1   7 6201.45 254.979   2
   2   1   7 5332.08 284.023   3
   2   1   7 5655.27 187.217   6
  -2   1   7 5985.25 290.208   3
   2  -1   7 6267.38 288.121   2
  -2  -1   7 5748.29 261.925   8
   2  -1   7 6084.37 250.310   7
   2  -1   7 5671.06 287.154   3
  -2  -1   8 2472.54 134.646   7
   2   1   8 2781.50 160.066   9
   2   1   8 2329.54 157.598   2
   2  -1   8 2613.25 173.778   8
   2  -1   8 2446.51 156.002   7
   2   1   8 2489.03 97.1784   6
  -2   1   8 2328.91 137.030   6
   2  -1   8 2438.69 191.064   3
  -2  -1   8 2166.97 158.940   8
   2   1   8 2380.56 191.009   3
  -2   1   8 2436.94 189.075   3
  -2  -1   8 2447.48 194.382   3
   2  -1   9 4522.64 239.194   8
  -2  -1   9 4427.51 201.929   7
  -2  -1   9 4011.25 228.532   8
  -2   1   9 4283.60 271.074   3
   2   1   9 4375.33 237.242   2
   2  -1   9 4385.99 226.957   7
   2   1   9 4476.89 209.500   9
   2   1   9 4080.54 273.437   3
   2  -1   9 3908.90 266.225   3
  -2  -1   9 4232.16 276.919   3
  -2   1  10 7159.97 384.858   3
   2   1  10 7848.93 408.967   3
   2  -1  10 7591.69 332.912   8
  -2  -1  10 7357.68 396.220   3
   2  -1  10 7058.02 391.400   3
  -2  -1  10 7315.66 331.840   8
   2  -1  11 1317.88 130.222   8
   2  -1  11 1408.12 173.543   3
  -2  -1  11 1486.13 182.066   3
   2   1  11 1360.28 174.267   3
  -2   1  11 1376.61 168.989   3
  -2  -1  11 1377.23 136.404   8
   2  -1  12 1437.51 192.583   3
  -2  -1  12 1923.96 222.514   3
  -2   1  12 1650.77 198.527   3
   2   1  12 1491.99 190.480   3
  -2  -2 -12 65.4039 70.0955   1
   2  -2 -12 26.7795 86.7475   1
  -2  -2 -11 82.5036 83.4170   1
   2  -2 -11 73.8646 105.000   1
  -2   2 -11 9.57909 71.1414   1
   2   2 -11-52.0192 90.9056   1
   2  -2 -10 235.701 76.8376   2
  -2  -2 -10 253.946 101.020   1
  -2   2 -10 211.526 100.211   1
   2  -2 -10 252.866 90.5011   1
   2   2 -10 379.105 115.736   1
  -2   2  -9 708.300 140.715   1
   2   2  -9 658.015 68.1358   4
   2  -2  -9 674.017 106.798   2
  -2  -2  -9 627.595 121.521   1
   2  -2  -9 502.148 115.224   1
   2   2  -9 722.716 133.908   1
  -2  -2  -8 283.506 61.8937   9
   2  -2  -8 399.895 90.3258   9
   2  -2  -8 574.823 127.844   1
  -2   2  -8 296.095 28.2526   6
  -2  -2  -8 291.485 84.3679   1
  -2   2  -8 331.604 31.0754   6
   2  -2  -8 483.118 93.6803   2
   2  -2  -8 484.778 85.5698   4
  -2   2  -8 359.098 85.8369   1
   2   2  -8 340.832 53.1658   4
   2   2  -8 307.237 49.8279   6
   2   2  -8 416.967 112.418   1
  -2   2  -7 1923.65 189.070   1
   2  -2  -7 2265.43 201.232   1
  -2  -2  -7 1868.63 128.639   2
  -2   2  -7 1842.69 98.2091   6
  -2  -2  -7 1779.52 149.016   9
   2  -2  -7 2145.46 162.896   4
   2  -2  -7 1906.17 157.704   2
   2   2  -7 1797.28 118.316   4
   2   2  -7 2291.02 206.725   1
  -2  -2  -7 1804.73 176.659   1
   2  -2  -7 2168.87 182.786   9
   2   2  -6 837.529 56.9377   9
  -2   2  -6 988.102 126.245   1
  -2  -2  -6 1074.67 127.090   1
   2  -2  -6 834.307 101.632   4
  -2  -2  -6 737.340 74.7060   2
  -2   2  -6 733.684 95.4032   3
   2  -2  -6 909.223 101.552   2
   2  -2  -6 898.703 49.2681   8
  -2  -2  -6 1040.71 112.071   9
   2   2  -6 923.902 81.7547   4
  -2   2  -6 914.359 72.9124   6
   2  -2  -6 897.901 116.157   9
   2  -2  -5 2405.37 177.518   9
   2   2  -5 2338.51 109.228   9
   2  -2  -5 2149.51 148.542   2
   2  -2  -5 2136.92 94.2535   8
   2   2  -5 2364.08 133.770   4
  -2  -2  -5 2227.22 163.766   5
  -2   2  -5 2299.92 121.440   7
  -2  -2  -5 2421.66 125.457   2
  -2   2  -5 2368.80 182.068   1
  -2  -2  -5 2070.27 159.394   1
  -2   2  -5 2236.23 154.234   3
   2   2  -4 2597.18 121.238   9
   2   2  -4 2482.26 138.608   4
  -2  -2  -4 2423.07 83.7901   8
  -2   2  -4 2464.02 121.930   7
  -2   2  -4 2509.72 129.391   4
   2  -2  -4 2317.18 148.826   2
  -2  -2  -4 2473.33 163.574   5
  -2  -2  -4 2612.34 121.777   2
  -2   2  -4 2586.41 175.614   1
  -2  -2  -4 2914.24 164.124   1
  -2  -2  -4 2608.50 162.587   4
  -2   2  -3 140.355 41.9321   3
  -2  -2  -3 68.6793 34.4121   4
  -2   2  -3 122.861 30.5556   7
  -2  -2  -3 51.7596 27.9525   1
   2  -2  -3 77.6181 33.5725   5
   2  -2  -3 123.412 42.5268   2
  -2   2  -3 79.1843 23.0781   9
  -2   2  -3 77.0728 33.7723   4
   2   2  -3 82.7444 34.7465   4
  -2   2  -3 30.9579 42.0255   1
  -2  -2  -3 87.8934 23.0130   8
   2   2  -3 101.275 28.6605   9
  -2  -2  -3 82.9435 23.8138   2
  -2  -2  -3 98.6179 51.2285   5
  -2  -2  -2 1709.53 92.7933   8
   2  -2  -2 1779.77 118.052   2
  -2  -2  -2 1798.21 92.7940   1
   2   2  -2 1880.14 116.512   4
  -2   2  -2 1746.37 114.306   4
  -2   2  -2 1846.86 113.582   1
  -2  -2  -2 1858.03 129.778   5
   2   2  -2 1815.93 107.101   9
  -2  -2  -2 1574.96 88.1156   2
  -2   2  -2 1636.91 101.055   9
   2  -2  -2 1669.26 103.276   5
  -2   2  -2 1787.72 107.944   3
   2  -2  -1 4430.55 204.084   2
  -2   2  -1 4417.36 170.984   1
   2  -2  -1 4442.39 177.940   5
  -2   2  -1 4538.40 182.399   3
   2   2  -1 4210.72 194.185   4
   2   2  -1 4162.77 185.770   9
  -2  -2  -1 4386.42 180.057   8
  -2   2  -1 4432.22 190.383   9
  -2  -2  -1 4600.60 217.040   5
   2  -2   0 35780.9 874.188   1
   2  -2   0 34755.5 964.810   2
  -2  -2   0 36570.3 934.603   8
   2  -2   0 35852.7 898.309  10
   2   2   0 35246.3 939.042   9
  -2   2   0 34434.3 950.084   6
  -2  -2   0 36873.3 988.846   5
  -2   2   0 35229.2 942.482   9
   2   2   0 35776.8 948.555   4
  -2   2   0 38010.4 898.896  10
   2  -2   0 35450.1 918.631   5
  -2   2   0 37941.9 927.141   5
   2   2   1 4476.60 207.747   9
   2  -2   1 4289.70 199.270   4
  -2  -2   1 4477.90 190.664   9
  -2   2   1 4450.25 171.315  10
   2  -2   1 4554.97 172.324   1
   2   2   1 4436.35 144.812   1
   2  -2   1 4208.03 173.958  10
  -2  -2   1 4161.52 216.416   5
   2   2   1 4219.69 136.145  10
   2   2   1 4352.12 207.330   4
  -2   2   1 4508.48 207.804   6
   2  -2   1 4538.78 185.484   5
  -2   2   1 4462.10 207.095   9
  -2   2   1 4151.19 176.676   5
   2  -2   1 4249.87 189.900   9
   2  -2   2 1705.93 114.264   1
  -2  -2   2 1697.01 104.747   9
  -2   2   2 1739.84 116.115   2
   2   2   2 1730.64 128.524   9
   2  -2   2 1671.68 110.199  10
  -2  -2   2 1702.28 113.622   4
  -2  -2   2 1758.94 127.896   5
   2  -2   2 1814.28 111.614   9
   2   2   2 1981.44 138.228   4
  -2   2   2 1659.20 119.901   6
   2   2   2 1784.33 92.5245   1
   2  -2   2 1763.31 106.342   5
   2  -2   2 1809.51 120.208   4
  -2   2   2 1666.35 124.670   9
  -2   2   2 1724.80 102.929   5
  -2  -2   3 104.726 41.9615   5
  -2   2   3 60.7637 29.9346   5
  -2  -2   3 137.122 35.6785   4
   2  -2   3 76.9876 37.2695   3
   2  -2   3 15.7267 23.4723   9
  -2   2   3 78.4837 45.7466   9
   2  -2   3 41.8637 27.1041   4
  -2   2   3 67.1792 36.0331   2
   2  -2   3 143.707 48.8702   1
   2   2   3 100.198 28.5370   2
   2   2   3 67.5287 36.8666   4
   2   2   3 47.5084 45.9789   9
  -2  -2   3 84.3753 28.4211   9
  -2   2   3 53.5266 37.6004   6
   2  -2   4 2566.16 128.934   4
   2   2   4 2348.98 170.319   9
  -2  -2   4 2686.26 143.520   4
  -2   2   4 2643.88 154.857   2
   2  -2   4 2650.42 157.914   3
   2  -2   4 2774.78 122.437   9
  -2  -2   4 2493.29 118.142   9
  -2   2   4 2549.23 153.632   6
  -2  -2   4 2575.68 166.804   3
   2   2   4 2835.51 174.554   4
  -2   2   4 2607.65 169.241   9
   2   2   4 2480.70 121.013   2
  -2   2   4 2672.64 155.310   5
  -2   2   5 2425.63 160.221   5
  -2   2   5 2202.89 142.473   6
   2   2   5 2374.73 158.152   4
  -2  -2   5 2293.60 131.631   4
   2   2   5 2175.64 120.203   2
   2  -2   5 2162.40 104.948   4
   2  -2   5 2166.15 152.403   3
  -2   2   5 2303.88 152.128   2
  -2  -2   5 2128.34 164.640   8
   2  -2   5 2280.33 87.0615   9
  -2   2   5 2188.82 148.627   3
  -2   2   5 2100.14 156.870   9
   2   2   5 2345.73 175.456   9
  -2  -2   5 2264.17 164.538   3
   2   2   6 998.998 92.5667   6
  -2   2   6 926.527 102.306   2
  -2   2   6 954.825 105.821   9
  -2  -2   6 738.253 104.358   3
   2  -2   6 773.241 53.7818   4
  -2  -2   6 832.060 105.365   8
   2   2   6 958.633 114.224   9
  -2   2   6 971.508 94.1963   6
   2   2   6 781.023 76.5662   2
  -2   2   6 879.285 99.4372   3
  -2   2   6 890.636 104.277   5
   2  -2   6 941.728 107.566   3
   2   2   7 2069.31 129.752   6
  -2   2   7 1738.57 152.228   3
   2   2   7 1963.51 168.268   9
   2  -2   7 1894.18 119.864   7
  -2  -2   7 2073.04 169.655   8
   2   2   7 1812.71 126.217   2
  -2   2   7 1958.31 139.957   6
   2   2   7 1853.71 163.956   3
  -2   2   7 2031.32 158.759   2
   2  -2   7 1677.37 164.896   8
  -2   2   7 1991.10 157.393   9
  -2  -2   7 2007.86 173.838   3
   2  -2   7 1767.88 158.593   3
   2   2   8 279.009 73.5396   9
   2  -2   8 353.230 86.0075   8
  -2   2   8 303.623 76.9682   3
  -2  -2   8 250.372 75.9793   8
   2   2   8 381.748 63.7007   2
   2  -2   8 441.093 94.1108   3
   2  -2   8 326.257 56.9437   7
   2   2   8 336.657 51.5100   6
  -2  -2   8 237.073 75.6869   3
   2   2   8 239.823 68.4870   3
  -2   2   8 433.762 66.3302   6
  -2  -2   9 711.796 118.789   3
   2   2   9 690.292 103.089   9
   2  -2   9 758.318 124.316   3
  -2   2   9 782.138 89.4930   6
   2  -2   9 601.195 103.592   8
   2   2   9 845.678 126.950   3
   2   2   9 773.336 71.6638   6
  -2  -2   9 812.986 118.798   8
  -2   2   9 760.506 120.816   3
   2   2  10 344.539 89.9834   3
   2  -2  10 256.016 83.5351   8
  -2   2  10 186.478 69.1569   3
  -2  -2  10 195.927 77.0636   8
   2   2  10 288.356 69.4758   9
  -2  -2  10 247.072 82.7615   3
  -2   2  10 290.298 58.4369   6
   2  -2  10 294.098 85.0463   3
  -2   2  11 60.8670 58.9920   3
   2  -2  11 125.624 68.1326   8
  -2  -2  11-2.52931 53.5883   8
   2  -2  11 60.5794 70.1547   3
   2   2  11 132.168 91.7197   3
  -2  -2  11 73.5462 79.1695   3
   2  -3 -12 834.727 170.077   1
  -2  -3 -12 904.100 165.284   1
  -2   3 -11 537.608 134.507   1
  -2  -3 -11 370.257 95.2227   1
   2   3 -11 309.131 104.230   1
   2  -3 -11 482.010 127.008   1
   2  -3 -11 544.896 112.116   2
  -2  -3 -10 1357.70 177.340   1
  -2   3 -10 1157.60 176.945   1
   2   3 -10 1339.57 195.024   1
   2  -3 -10 1407.96 164.365   2
   2  -3 -10 1291.74 183.132   1
  -2  -3  -9 2475.40 229.293   1
   2  -3  -9 2438.12 232.572   1
  -2   3  -9 2547.56 252.103   1
   2   3  -9 2972.04 267.111   1
   2  -3  -9 2777.25 218.742   2
  -2  -3  -9 2826.57 186.652   2
   2   3  -8 4500.36 315.173   1
  -2   3  -8 4551.24 318.686   1
   2  -3  -8 4577.12 275.171   2
  -2   3  -8 4671.72 217.795   6
   2  -3  -8 4683.39 301.813   1
   2   3  -8 4858.92 240.229   4
  -2  -3  -8 4977.47 245.544   2
  -2  -3  -8 4822.36 300.834   1
   2  -3  -7 3045.77 225.181   1
  -2   3  -7 3090.25 180.504   6
   2   3  -7 2653.30 226.181   1
   2   3  -7 3351.15 195.464   4
  -2  -3  -7 3142.60 219.788   1
  -2  -3  -7 3177.57 181.982   2
   2  -3  -7 3383.73 220.278   2
  -2   3  -7 2934.92 236.285   1
   2   3  -7 3497.54 143.997   9
   2  -3  -6 2380.04 105.575   8
  -2  -3  -6 2837.55 214.580   5
   2   3  -6 2613.66 200.066   1
   2   3  -6 2700.41 143.858   9
  -2  -3  -6 2491.64 150.900   2
   2   3  -6 2474.70 166.145   4
  -2  -3  -6 2577.52 181.394   1
   2  -3  -6 2782.37 194.750   1
   2  -3  -6 2506.10 183.617   2
  -2   3  -6 2639.53 139.750   7
  -2   3  -6 2937.07 218.728   1
  -2  -3  -6 2813.48 208.390   4
   2   3  -5 6880.96 267.643   9
   2  -3  -5 6138.64 295.551   2
  -2   3  -5 6396.23 314.389   1
  -2  -3  -5 6482.79 327.982   4
  -2  -3  -5 6154.26 325.676   5
   2  -3  -5 6813.32 295.408   1
  -2  -3  -5 6269.94 191.108   8
  -2  -3  -5 6908.25 262.173   2
  -2   3  -5 6512.55 244.575   7
   2   3  -5 6682.63 294.077   4
  -2   3  -5 6122.21 270.528   4
   2   3  -5 5984.46 301.876   1
  -2  -3  -5 6451.32 279.280   1
  -2  -3  -4 5717.18 296.106   5
  -2   3  -4 5292.02 249.380   4
  -2  -3  -4 5442.14 196.211   8
  -2  -3  -4 5489.97 292.050   4
  -2  -3  -4 5488.91 293.642   9
  -2  -3  -4 5336.74 223.094   1
  -2   3  -4 5109.27 220.445   9
   2  -3  -4 5073.41 257.489   5
   2   3  -4 5255.38 257.160   4
   2  -3  -4 5244.75 290.503   4
  -2  -3  -4 5557.44 225.867   2
  -2   3  -4 5167.54 215.593   7
   2   3  -4 5513.78 240.928   9
  -2   3  -4 5507.93 266.019   1
   2  -3  -4 5037.80 295.299   9
  -2   3  -4 5851.36 270.474   3
   2  -3  -4 5333.75 264.260   2
   2   3  -4 5283.57 256.988   1
  -2   3  -3 26450.2 750.440   3
  -2  -3  -3 24998.2 682.229   8
  -2   3  -3 26147.8 724.553   1
  -2  -3  -3 25676.9 651.890   1
   2   3  -3 24233.5 722.685   9
  -2  -3  -3 25819.7 698.212   2
  -2  -3  -3 25324.4 796.748   9
  -2   3  -3 24954.9 743.210   4
  -2  -3  -3 24608.0 782.785   5
   2   3  -3 25330.2 753.299   4
  -2   3  -3 24354.0 710.745   9
   2  -3  -3 25686.2 745.137   5
   2  -3  -3 26327.3 802.883   4
  -2  -3  -3 20418.7 756.402   4
   2   3  -3 26045.3 784.641   3
   2  -3  -3 24850.2 751.595   2
   2  -3  -2 10735.2 405.555   2
   2  -3  -2 11201.1 389.730   5
  -2  -3  -2 9850.03 416.346   5
   2   3  -2 10741.3 407.637   4
  -2  -3  -2 10794.1 368.863   2
  -2  -3  -2 10426.7 365.044   8
  -2   3  -2 10394.0 400.212   4
  -2   3  -2 10324.3 382.958   9
   2   3  -2 10432.3 390.001   9
  -2   3  -2 11319.5 352.853   1
  -2   3  -1 17421.0 574.985   4
   2  -3  -1 16938.5 434.528   1
   2   3  -1 17648.7 567.197   9
  -2  -3  -1 16915.3 588.349   5
  -2   3  -1 17109.7 544.900   3
   2  -3  -1 15706.9 529.911   5
   2   3  -1 17825.9 582.808   4
  -2  -3  -1 17356.7 543.956   8
  -2  -3  -1 18932.3 557.249   2
  -2   3  -1 18625.4 475.636   1
   2   3  -1 18130.0 601.192   5
   2  -3  -1 16234.7 571.572   2
  -2   3  -1 17282.7 559.319   9
   2  -3   0 5859.46 261.612   5
   2  -3   0 5923.42 286.616   9
   2  -3   0 5718.53 181.961   1
   2   3   0 5784.78 278.377   9
  -2   3   0 5422.10 272.819   9
   2   3   0 5906.46 289.688   4
  -2   3   0 6577.06 211.060  10
   2   3   0 6719.48 314.212   5
  -2  -3   0 6352.85 307.096   5
  -2  -3   0 5815.85 279.261   9
   2  -3   0 6060.13 296.908   2
  -2   3   0 6700.27 273.706   5
  -2   3   0 4837.35 268.444   6
   2  -3   1 18657.2 500.251  10
  -2  -3   1 17676.0 573.829   9
   2  -3   1 18102.5 583.836   9
   2   3   1 18140.2 615.214   5
  -2   3   1 17469.1 483.951  10
   2   3   1 16862.7 591.521   9
  -2   3   1 16715.2 588.793   6
   2   3   1 16479.2 595.041   4
  -2   3   1 17769.5 564.591   5
  -2   3   1 17864.4 595.002   9
  -2  -3   1 17435.0 616.074   5
   2  -3   1 18298.1 485.988   1
   2  -3   1 17530.1 567.481   5
  -2  -3   1 17773.3 587.212   4
   2  -3   1 18947.5 599.876   4
   2   3   2 10640.6 436.301   4
   2  -3   2 11680.7 411.284   9
   2  -3   2 10854.9 353.568  10
  -2   3   2 10199.6 424.147   9
   2  -3   2 12052.2 427.051   4
  -2  -3   2 11728.5 421.571   4
  -2  -3   2 10189.0 429.679   5
  -2   3   2 10271.5 419.188   6
   2   3   2 10212.9 431.692   9
  -2  -3   2 10991.7 395.440   9
  -2   3   2 11225.8 395.865   5
  -2   3   2 10742.0 341.459  10
   2  -3   2 10763.9 396.825   5
   2   3   2 10856.7 297.856  10
   2   3   2 10771.5 431.395   5
   2   3   3 24803.1 811.152   9
   2  -3   3 26769.7 746.328   9
  -2  -3   3 27124.0 771.861   4
   2  -3   3 26750.4 768.730   4
  -2  -3   3 25422.3 731.778   9
   2   3   3 25839.5 812.273   4
   2   3   3 26332.8 795.054   5
   2  -3   3 24697.5 719.705  10
  -2   3   3 25373.9 790.895   6
  -2   3   3 27075.1 771.709   2
  -2   3   3 25219.8 706.443  10
  -2   3   3 23608.0 794.016   9
  -2  -3   3 25455.3 800.172   5
   2  -3   3 25478.6 754.990   5
  -2  -3   4 4794.29 216.944   9
   2   3   4 5219.10 282.724   4
   2   3   4 4719.65 282.608   9
  -2  -3   4 5031.31 244.321   4
   2  -3   4 5174.32 225.272   9
  -2   3   4 5055.79 253.891   2
   2  -3   4 4582.40 242.912   5
  -2   3   4 5113.62 251.037   5
  -2  -3   4 4767.65 272.302   5
   2  -3   4 4565.40 230.685   4
  -2   3   4 4616.28 259.013   6
   2   3   4 4816.64 265.745   5
  -2  -3   4 5297.13 291.731   8
  -2   3   4 4646.35 272.335   9
   2  -3   4 4801.44 239.051  10
   2   3   5 7596.52 377.092   9
  -2   3   5 7840.69 338.405   5
   2  -3   5 6551.11 281.842   4
   2   3   5 7357.11 355.119   4
  -2  -3   5 7084.54 266.608   9
   2  -3   5 7429.05 337.530   3
   2   3   5 7259.67 281.633   2
  -2  -3   5 7072.68 365.940   8
  -2   3   5 7118.38 335.502   6
  -2  -3   5 7260.74 306.950   4
   2  -3   5 7316.38 265.014   9
  -2   3   5 8040.65 336.452   2
  -2   3   5 7084.18 354.474   9
  -2  -3   5 6707.54 345.049   5
  -2  -3   6 2991.61 222.769   3
  -2  -3   6 2602.02 209.667   5
   2  -3   6 3077.22 162.278   4
  -2  -3   6 2876.92 175.876   4
  -2  -3   6 3016.98 231.419   8
   2   3   6 3093.59 170.956   2
   2  -3   6 3142.91 129.459   9
   2   3   6 2989.99 204.324   6
  -2   3   6 2746.23 199.956   6
  -2   3   6 2611.22 209.958   9
  -2   3   6 3091.66 202.007   2
  -2   3   6 2754.36 195.601   3
   2   3   6 3334.37 241.862   9
   2  -3   6 3074.94 212.034   3
  -2   3   7 3090.10 208.214   6
   2   3   7 3839.03 261.996   9
   2   3   7 3196.47 207.608   6
  -2  -3   7 3045.97 239.352   8
  -2  -3   7 2872.42 231.366   3
   2   3   7 3131.51 181.002   2
  -2   3   7 3049.09 217.740   3
  -2   3   7 3145.97 235.078   9
   2  -3   7 3439.51 159.825   4
   2  -3   7 2511.63 227.592   8
   2  -3   7 3018.65 224.277   3
   2  -3   8 4330.46 286.707   3
  -2   3   8 4192.60 281.862   9
  -2   3   8 4725.30 261.839   6
  -2   3   8 4229.01 277.072   3
   2  -3   8 4233.86 306.115   8
   2   3   8 4873.39 239.790   2
  -2  -3   8 4800.17 310.146   3
  -2  -3   8 4531.72 307.082   8
   2   3   8 4306.18 290.657   3
   2   3   8 4703.55 253.383   6
   2   3   8 4121.77 287.218   9
  -2  -3   9 2819.47 248.613   8
   2   3   9 2589.15 227.647   9
   2  -3   9 2697.13 246.346   8
   2   3   9 2746.70 238.479   3
  -2   3   9 2558.04 190.317   6
   2   3   9 2920.04 189.134   6
  -2  -3   9 2601.48 240.273   3
  -2   3   9 3100.32 242.470   3
   2  -3   9 2584.59 227.594   3
   2  -3  10 1682.17 193.034   3
   2   3  10 1351.88 174.693   3
   2   3  10 1211.50 156.666   9
  -2  -3  10 1340.49 176.437   8
   2  -3  10 1200.89 175.658   8
  -2  -3  10 1477.09 194.614   3
  -2   3  10 1229.49 129.669   6
  -2   3  10 1076.01 160.961   3
   2  -3  11 617.149 130.533   8
   2  -3  11 568.975 117.223   3
  -2  -3  11 502.093 119.013   8
   2   3  11 578.321 115.220   9
  -2   3  11 497.736 112.336   3
  -2  -3  12 895.963 150.816   8
   2   4 -10 1825.51 221.233   1
   2  -4 -10 1972.01 198.997   2
  -2   4 -10 2099.08 239.953   1
   2  -4  -9 1296.76 155.193   1
   2   4  -9 1086.61 164.409   1
   2  -4  -9 1094.06 148.314   2
  -2   4  -9 1136.73 162.803   1
  -2   4  -8 3786.82 288.173   1
   2  -4  -8 4161.92 267.836   1
  -2  -4  -8 3941.89 253.929   1
   2   4  -8 3972.29 247.549   4
  -2  -4  -8 4383.11 239.962   2
   2   4  -8 3969.72 295.200   1
   2  -4  -8 4134.50 273.648   2
  -2   4  -8 4225.29 243.979   6
  -2   4  -7 5564.82 294.274   6
  -2  -4  -7 5839.18 275.482   2
   2  -4  -7 5510.17 288.981   1
   2   4  -7 5391.75 325.847   1
   2   4  -7 5508.99 301.966   4
  -2  -4  -7 5489.52 283.402   1
  -2  -4  -7 5074.48 348.380   5
   2  -4  -7 5921.67 327.429   2
  -2   4  -7 5222.60 325.316   1
   2   4  -6 2921.51 175.913   9
   2  -4  -6 2486.29 170.447   1
   2  -4  -6 2626.41 207.070   2
  -2  -4  -6 2593.12 167.340   1
   2   4  -6 2422.84 199.660   1
   2   4  -6 2643.21 202.685   4
  -2  -4  -6 2592.43 231.969   5
  -2  -4  -6 2839.72 179.628   2
  -2   4  -6 2770.09 210.843   1
  -2   4  -6 3145.55 213.286   6
  -2  -4  -6 2655.99 102.897   8
  -2   4  -6 2818.36 153.285   7
   2  -4  -6 2869.30 148.016   8
  -2  -4  -5 8119.13 435.217   5
   2   4  -5 8922.68 380.512   1
  -2  -4  -5 9034.45 315.755   1
   2   4  -5 9092.40 367.614   9
  -2   4  -5 9208.83 331.958   7
   2  -4  -5 8708.53 411.647   5
  -2   4  -5 8691.85 382.024   1
   2  -4  -5 9359.10 332.522   1
   2   4  -5 8054.49 390.761   4
  -2  -4  -5 8978.17 359.587   2
  -2  -4  -5 9404.79 307.798   8
   2  -4  -5 8759.82 406.608   2
   2  -4  -4 3153.16 145.092   1
   2   4  -4 2733.46 190.236   9
  -2  -4  -4 3080.83 189.394   2
   2   4  -4 3111.62 185.838   1
  -2   4  -4 2986.33 173.162   7
  -2   4  -4 2709.11 179.862   9
  -2  -4  -4 3117.83 128.922   1
  -2   4  -4 3108.15 190.196   1
  -2  -4  -4 3356.29 177.621   8
  -2  -4  -4 2607.89 219.032   5
   2   4  -4 2737.50 208.669   4
   2  -4  -4 3255.31 225.557   2
   2  -4  -4 2974.15 214.334   5
  -2   4  -4 3043.56 208.985   4
   2   4  -4 3174.57 122.480   7
  -2  -4  -3 8220.48 350.522   2
  -2  -4  -3 8187.94 411.114   5
  -2   4  -3 9174.31 398.174   4
   2   4  -3 9252.92 323.834   1
  -2   4  -3 9252.33 329.624   1
   2  -4  -3 8276.49 391.178   2
   2   4  -3 8315.35 397.594   4
  -2   4  -3 8833.42 371.144   9
   2  -4  -3 8890.89 246.388   1
   2  -4  -3 9152.32 251.660   1
   2  -4  -3 8249.12 381.809   5
   2   4  -3 8814.70 384.293   9
  -2  -4  -2 6334.21 347.009   5
  -2   4  -2 6420.02 316.896   9
  -2  -4  -2 6556.26 303.745   8
   2  -4  -2 5689.19 318.282   2
   2  -4  -2 6241.05 312.403   5
   2   4  -2 6390.84 340.375   4
  -2   4  -2 7602.05 352.734   4
  -2   4  -2 7065.64 243.424   1
   2   4  -2 6849.55 337.087   9
  -2  -4  -2 6367.27 302.595   2
   2   4  -2 7138.66 234.838   1
  -2   4  -2 6949.09 325.769   3
   2  -4  -1 9286.15 419.214   2
  -2   4  -1 9935.35 404.344   3
  -2  -4  -1 10327.1 404.299   2
   2  -4  -1 8717.75 380.974   5
   2   4  -1 9438.57 414.227   9
  -2   4  -1 9890.50 426.117   4
   2   4  -1 8617.49 413.266   4
  -2   4  -1 9358.48 405.091   9
  -2  -4  -1 8939.96 390.189   8
  -2  -4  -1 9311.92 426.284   5
   2   4   0 14246.5 568.624   9
  -2   4   0 15130.9 566.429   9
   2   4   0 14224.3 574.887   4
   2  -4   0 15317.5 585.912   2
  -2  -4   0 14124.3 551.898   8
  -2   4   0 17086.0 556.282   5
  -2  -4   0 15956.4 594.106   5
  -2   4   0 15757.3 591.412   6
   2  -4   0 15596.1 543.920   5
   2  -4   1 11284.9 458.292   9
   2  -4   1 10751.5 322.989  10
  -2  -4   1 10838.8 475.969   5
   2   4   1 10039.0 459.146   9
  -2   4   1 10338.2 457.093   9
   2   4   1 10168.6 463.728   4
  -2  -4   1 10174.5 450.118   8
  -2   4   1 11198.7 311.192  10
  -2   4   1 10761.1 471.311   6
  -2  -4   1 10762.0 453.351   9
  -2   4   1 11210.0 436.668   5
   2  -4   1 10973.2 434.987   5
   2   4   2 7077.73 367.377   4
   2   4   2 6675.51 363.802   9
  -2   4   2 6459.45 354.057   6
  -2   4   2 7029.64 237.039  10
  -2   4   2 6143.32 322.523   5
   2  -4   2 7907.39 349.856   9
   2  -4   2 7173.16 256.503  10
  -2   4   2 6728.67 354.535   9
  -2  -4   2 7282.67 369.708   8
  -2  -4   2 6671.64 331.454   9
  -2  -4   2 7011.95 376.102   5
   2  -4   2 6749.03 335.358   5
   2  -4   3 10732.4 407.873   9
   2  -4   3 10078.6 424.014   4
  -2  -4   3 8651.77 434.161   5
   2  -4   3 9154.89 333.336  10
   2   4   3 10193.5 454.619   4
  -2  -4   3 9034.62 440.227   8
  -2   4   3 8862.81 427.444   6
  -2   4   3 9544.63 318.633  10
  -2  -4   3 8632.75 382.954   9
  -2   4   3 9321.35 439.461   9
   2  -4   3 9410.05 412.151   5
   2   4   3 9504.40 450.921   9
   2   4   3 8709.19 254.143  10
  -2   4   3 8684.29 395.885   5
   2   4   4 2738.68 140.218  10
   2   4   4 2535.43 223.879   9
  -2   4   4 2604.10 220.325   9
   2  -4   4 3050.53 190.965   9
  -2  -4   4 2741.41 228.674   5
   2  -4   4 2429.28 162.906  10
   2   4   4 2864.99 229.042   4
   2  -4   4 2780.93 199.833   4
  -2  -4   4 2278.90 215.417   8
  -2   4   4 2753.34 163.396  10
  -2  -4   4 2486.03 178.870   9
   2  -4   4 2701.19 206.778   5
  -2   4   4 2388.72 206.213   6
   2  -4   5 8406.26 339.416   9
  -2  -4   5 8579.25 347.094   9
  -2   4   5 7586.77 415.688   9
   2   4   5 8982.11 435.136   4
  -2  -4   5 8480.94 433.886   5
  -2  -4   5 8135.15 438.336   8
   2  -4   5 8562.35 445.297   8
  -2   4   5 7759.84 405.962   6
   2  -4   5 8343.47 401.228   5
   2   4   5 8729.59 439.314   9
   2  -4   5 8017.30 363.855   4
   2  -4   5 8351.52 361.442  10
   2   4   6 3181.42 244.676   6
  -2  -4   6 3341.43 276.177   8
  -2   4   6 2948.74 249.404   9
  -2   4   6 3205.31 248.100   6
  -2  -4   6 3397.09 268.692   5
   2  -4   6 3207.06 207.625   4
   2  -4   6 3504.48 255.204   5
   2  -4   6 2927.42 263.941   8
   2  -4   6 3237.15 223.149  10
  -2  -4   6 3221.58 183.863   9
   2   4   6 3081.67 258.758   9
  -2   4   7 5115.97 346.366   9
  -2  -4   7 5225.39 364.611   8
   2  -4   7 6380.03 394.267   8
   2  -4   7 5668.06 340.264   5
  -2   4   7 5843.96 340.161   3
  -2   4   7 5850.50 338.842   6
   2   4   7 6178.07 378.550   9
   2   4   7 5386.97 325.695   6
  -2  -4   7 5610.92 364.938   5
   2   4   8 3965.88 272.159   6
   2   4   8 3907.80 303.453   9
  -2   4   8 3837.95 303.473   9
  -2  -4   8 3975.47 319.994   8
  -2   4   8 4399.89 292.475   6
   2  -4   8 3648.22 284.501   3
  -2   4   8 3468.91 268.001   3
   2  -4   8 4071.24 324.465   8
   2  -4   8 3819.47 289.162   5
  -2  -4   8 3837.20 305.874   5
   2  -4   9 1466.49 195.680   3
   2   4   9 1484.01 188.094   3
  -2   4   9 1311.05 179.057   9
   2   4   9 1322.47 151.440   6
   2   4   9 1261.79 181.761   9
  -2   4   9 1439.83 163.879   6
  -2  -4   9 1430.22 199.086   8
   2  -4   9 1695.58 199.025   5
  -2   4   9 1422.81 182.823   3
   2  -4   9 1280.82 193.281   8
  -2  -4   9 1317.28 193.479   5
   2  -4  10 2183.71 233.548   3
   2   4  10 1385.90 197.976   9
  -2  -4  10 1899.62 233.683   8
   2  -4  10 1764.95 227.874   8
  -2   4  10 1924.82 191.751   6
  -2   4  10 2237.52 234.089   3
   2  -4  10 1793.26 213.205   5
  -2   5  -9 1133.44 162.103   1
   2  -5  -8 2999.45 251.451   2
   2   5  -8 2541.03 233.449   1
  -2   5  -8 2292.60 223.475   1
  -2   5  -7 2896.98 231.974   1
  -2   5  -7 2645.46 219.821   6
   2  -5  -7 2678.91 235.874   2
  -2  -5  -7 2598.50 266.794   5
   2   5  -7 2819.24 229.718   4
   2   5  -7 2908.64 232.850   1
   2   5  -6 1981.92 163.823   9
   2  -5  -6 1912.36 199.434   2
  -2   5  -6 1969.59 172.779   1
   2   5  -6 1750.13 188.806   4
  -2   5  -6 2117.06 195.268   6
  -2  -5  -6 2129.92 174.406   2
   2  -5  -6 1943.13 203.885   5
   2   5  -6 1751.55 167.774   1
  -2  -5  -6 2191.23 236.672   5
  -2  -5  -5 2388.81 239.711   5
   2  -5  -5 2874.35 188.264   8
   2   5  -5 2887.84 205.261   9
   2   5  -5 2307.14 212.013   4
   2  -5  -5 2404.77 220.664   2
  -2  -5  -5 2388.14 188.932   2
  -2   5  -5 2402.16 181.506   9
   2  -5  -5 2241.00 217.204   5
   2   5  -5 2490.15 178.256   1
  -2   5  -5 2255.85 206.153   6
  -2   5  -5 2399.62 177.690   1
  -2  -5  -4 1711.63 197.119   5
   2   5  -4 2277.21 188.898   9
  -2   5  -4 1990.41 173.739   9
   2  -5  -4 1891.50 187.252   5
  -2   5  -4 2046.94 156.020   7
  -2   5  -4 2227.36 148.537   1
   2   5  -4 1983.09 199.878   4
  -2   5  -4 2205.20 204.845   6
  -2  -5  -4 1939.24 170.906   2
  -2  -5  -4 2216.10 168.844   8
   2  -5  -4 2139.90 174.442   8
   2  -5  -4 1936.77 197.080   2
   2   5  -4 2140.33 145.525   1
  -2  -5  -3 3932.16 251.461   2
   2   5  -3 4355.25 178.756   1
   2   5  -3 4168.81 293.978   4
  -2  -5  -3 4437.19 260.440   8
  -2   5  -3 4276.94 267.877   9
   2  -5  -3 3964.98 273.395   5
  -2   5  -3 4325.87 185.864   1
  -2   5  -3 4113.77 288.547   6
   2  -5  -3 4662.55 270.287   8
   2   5  -3 4227.98 271.987   9
  -2  -5  -3 4040.67 300.917   5
   2  -5  -3 3637.55 269.774   2
   2  -5  -2 4096.10 271.416   5
  -2  -5  -2 4073.58 291.355   5
  -2   5  -2 4089.25 285.564   6
  -2  -5  -2 4069.31 255.366   2
  -2   5  -2 3766.11 257.012   9
   2   5  -2 3937.22 269.336   9
  -2  -5  -2 3628.47 247.903   8
   2  -5  -2 3939.14 276.992   2
   2   5  -2 3735.55 281.447   4
   2   5  -1 2559.30 218.661   9
  -2  -5  -1 2782.65 214.365   2
   2   5  -1 2800.84 240.198   4
  -2   5  -1 2837.05 224.309   9
   2  -5  -1 2650.15 225.064   2
  -2  -5  -1 2820.36 221.574   8
  -2  -5  -1 2555.75 226.421   5
   2  -5  -1 2942.09 220.504   5
  -2   5  -1 2454.40 225.249   6
  -2  -5   0 5205.72 318.714   8
  -2  -5   0 5230.47 331.199   5
  -2  -5   0 4740.52 294.725   2
   2  -5   0 5107.41 325.782   2
  -2   5   0 5406.65 323.875   9
  -2   5   0 5713.53 349.040   6
   2   5   0 5320.31 336.002   4
   2   5   0 4501.91 308.520   9
   2  -5   0 5541.40 306.247   5
   2  -5   1 1975.19 195.807   2
   2   5   1 1990.98 205.222   4
  -2  -5   1 2142.61 209.053   5
  -2   5   1 2155.11 208.839   9
  -2  -5   1 2038.99 205.919   8
  -2   5   1 2337.95 222.804   6
   2   5   1 2147.56 208.697   9
   2  -5   1 2264.56 191.992   5
  -2   5   2 4439.36 305.087   9
   2   5   2 4766.67 321.877   4
  -2   5   2 4594.75 318.809   6
   2  -5   2 4743.26 290.286   5
  -2  -5   2 4221.69 304.835   8
   2   5   2 4193.76 304.100   9
  -2  -5   2 4142.58 303.717   5
  -2  -5   3 4163.44 308.766   8
   2   5   3 4392.63 310.709   4
  -2   5   3 3877.50 296.481   9
   2  -5   3 4076.01 284.896   5
   2  -5   3 4355.14 312.254   8
  -2  -5   3 3703.11 294.078   5
  -2   5   3 4340.57 307.861   6
   2   5   3 4108.29 302.603   9
   2  -5   4 2497.57 238.537   8
   2   5   4 2324.29 229.507   9
  -2   5   4 2390.43 232.113   9
  -2  -5   4 2226.53 229.491   8
   2   5   4 2381.27 229.551   4
  -2   5   4 2331.23 228.719   6
   2  -5   4 2318.82 220.368   5
  -2  -5   4 2207.46 235.715   5
  -2   5   5 2169.14 222.556   6
  -2  -5   5 1881.12 221.783   5
   2   5   5 2274.31 218.264   6
   2  -5   5 1858.13 205.936   5
   2   5   5 2323.62 231.121   9
  -2  -5   5 2284.47 240.760   8
  -2   5   5 2366.46 236.130   9
   2  -5   5 2180.02 234.619   8
  -2   5   6 2437.36 240.852   6
   2  -5   6 2983.25 277.640   8
   2   5   6 2305.75 228.354   6
   2   5   6 2151.39 233.457   9
  -2   5   6 2586.20 255.454   9
  -2  -5   6 2188.80 244.607   8
   2  -5   6 2211.37 228.987   5
  -2  -5   6 2443.21 262.306   5
  -2  -5   7 2618.62 280.003   8
   2  -5   7 3009.09 274.854   5
  -2   5   7 2838.63 270.575   6
  -2   5   7 2771.26 268.739   9
   2  -5   7 2898.35 284.314   8
  -2  -5   7 2998.03 286.954   5
   2   5   7 3207.01 287.937   9
   2   5   7 3088.18 263.325   6
   2   5   8 2169.66 241.009   9
  -2   5   8 2086.93 226.098   6
   2   5   8 2242.21 226.441   6
  -2  -5   8 2334.29 262.435   5
  -2  -5   8 2027.19 254.156   8
   2  -5   8 1837.70 230.852   8
  -2   5   8 2116.93 225.465   3
  -2   5   8 2039.73 234.846   9
   2  -5   8 2408.97 251.634   5
   2  -5   9 1134.79 182.307   5
  -2   5   9 660.131 129.225   6
  -2   5   9 607.486 134.027   3
   2   5   9 730.459 133.372   6
   2  -6  -6 105.061 74.9770   2
   2   6  -6 104.962 62.6152   4
   2  -6  -6-18.7137 50.9244   5
  -2   6  -6 198.365 83.3161   6
  -2  -6  -5 98.1650 69.7611   5
   2  -6  -5 20.3163 56.5601   2
  -2   6  -5 55.0109 58.9094   6
   2   6  -5 129.669 83.4795   4
   2  -6  -5 19.7939 62.5532   5
   2  -6  -4 689.140 131.998   5
  -2   6  -4 927.341 129.330   9
  -2   6  -4 931.352 146.528   6
  -2  -6  -4 960.117 164.623   5
   2  -6  -4 902.943 149.408   2
   2   6  -4 1260.06 171.533   4
   2   6  -4 932.711 135.698   9
  -2  -6  -3 163.488 60.5905   2
  -2  -6  -3 281.646 97.0054   5
  -2   6  -3 261.390 80.1216   9
   2  -6  -3 277.130 88.5356   2
  -2  -6  -3 233.580 84.2420   8
   2  -6  -3 159.605 70.2127   8
   2   6  -3 194.944 77.4831   4
   2   6  -3 83.6146 63.5093   9
  -2   6  -3 214.208 85.5252   6
   2  -6  -3 323.889 84.3482   5
  -2  -6  -2 1543.80 195.626   5
   2  -6  -2 1619.91 190.684   2
  -2  -6  -2 1671.26 180.430   8
  -2   6  -2 1592.51 178.858   9
  -2  -6  -2 1595.57 173.539   2
   2   6  -2 1536.69 195.319   4
  -2   6  -2 1773.59 206.197   6
   2   6  -2 1464.44 180.105   9
   2  -6  -2 1506.08 175.630   8
   2  -6  -2 1561.98 178.790   5
  -2  -6  -1 627.166 120.007   8
  -2  -6  -1 654.086 127.565   5
   2  -6  -1 690.143 116.696   5
   2  -6  -1 530.900 114.002   2
   2   6  -1 795.593 138.300   4
   2   6  -1 694.622 136.997   9
  -2   6  -1 571.611 125.155   6
   2  -6  -1 541.182 120.443   8
  -2   6  -1 628.785 116.624   9
  -2  -6  -1 874.035 126.832   2
   2   6   0 2295.61 234.149   9
  -2  -6   0 1973.60 202.960   2
  -2   6   0 2233.57 222.361   9
  -2  -6   0 2301.63 227.212   5
   2  -6   0 2193.88 226.144   2
   2  -6   0 2066.39 199.437   5
   2   6   0 2486.43 244.008   4
  -2  -6   0 2102.05 215.981   8
  -2   6   0 2353.08 238.201   6
   2  -6   0 1995.65 212.249   8
   2  -6   1 515.645 124.486   2
  -2  -6   1 909.065 150.817   5
  -2  -6   1 574.891 135.858   8
  -2  -6   1 556.891 114.461   2
   2  -6   1 635.942 127.470   8
   2   6   1 750.695 147.012   4
   2   6   1 727.787 142.895   9
   2  -6   1 631.849 115.162   5
  -2   6   1 629.181 129.898   6
  -2   6   1 626.243 132.009   9
  -2  -6   2 1444.22 193.305   8
  -2  -6   2 1547.08 193.527   5
   2   6   2 1451.36 187.206   9
   2  -6   2 1544.53 196.633   2
   2  -6   2 1670.92 206.195   8
   2   6   2 1605.44 203.384   4
  -2   6   2 1493.75 194.288   9
  -2   6   2 1367.41 187.604   6
   2  -6   2 1533.74 174.943   5
   2  -6   3 110.315 69.4378   5
   2   6   3 143.754 85.7141   9
   2  -6   3 150.960 74.2267   2
  -2   6   3 286.187 93.8327   9
  -2  -6   3 162.785 81.5220   5
   2   6   3 254.931 93.7111   4
   2  -6   3 139.498 103.513   8
  -2  -6   3 135.436 98.6597   8
  -2   6   3 181.428 89.4128   6
  -2   6   4 1114.76 178.206   9
  -2  -6   4 947.514 165.501   8
   2  -6   4 956.409 167.011   8
  -2  -6   4 931.994 170.206   5
   2  -6   4 970.995 156.906   5
   2   6   4 1019.61 165.315   6
  -2   6   4 1096.89 167.693   6
   2   6   4 1054.01 170.764   9
   2  -6   5-54.0007 69.7757   5
  -2  -6   5 147.163 94.5017   5
  -2   6   5-0.44274 61.4891   6
   2   6   5 68.5842 63.3695   6
   2   6   6 111.017 67.2868   6
   2  -6   6 45.4622 100.118   5
   2  -6   7 588.564 137.431   5
   2  -7  -2 1402.13 195.549   2
   2  -7  -2 1542.80 193.533   5
  -2   7  -2 1589.49 192.872   9
   2   7  -2 1208.97 174.019   9
   2  -7  -1 799.628 129.623   5
  -2  -7  -1 752.541 139.730   8
   2  -7  -1 577.694 120.961   8
   2  -7  -1 762.866 143.698   2
   2  -7   0 640.785 121.520   5
   2  -7   0 533.118 122.757   8
  -2  -7   0 708.352 140.075   8
  -2  -7   0 898.582 146.220   2
   2  -7   1 886.812 140.302   5
  -2  -7   1 585.498 120.588   2
   2  -7   2 1502.58 185.687   5
  -2  -7   2 1475.52 194.391   2
  -3   0 -12 62.4408 98.5685   1
   3   0 -12 56.2542 113.898   1
   3   0 -11-46.7516 74.5237   1
  -3   0 -11-4.20632 72.1315   1
   3   0 -10 55.7762 83.2127   1
   3   0 -10 23.4777 31.6937   4
  -3   0 -10-72.7427 81.3662   1
   3   0  -9 13.0528 24.1847   9
   3   0  -9 39.8178 24.3427   4
   3   0  -9 30.5321 22.0832   6
   3   0  -9 131.215 100.095   1
  -3   0  -9 14.1741 59.7862   1
   3   0  -8 37.9190 40.2099   9
  -3   0  -8-3.16160 54.5943   1
   3   0  -8 51.4714 32.4560   6
   3   0  -7 12.1758 47.9349   3
   3   0  -7 6.32863 26.8497   9
   3   0  -7-41.3014 39.8270   8
   3   0  -7 27.1585 26.9346   6
  -3   0  -7 6.34708 62.0192   1
  -3   0  -6-14.6229 45.5319   1
  -3   0  -6 9.00879 15.5654   9
   3   0  -6 44.9480 35.4492   3
   3   0  -6 14.5304 20.5959   9
   3   0  -6 14.6275 29.4207   8
   3   0  -6-1.78682 20.8728   6
   3   0  -6 27.0282 39.9246   2
   3   0  -5 4.95812 30.5703   2
  -3   0  -5 25.4677 20.4792   9
   3   0  -5 10.7688 21.2610   9
   3   0  -5 39.1845 26.7927   8
  -3   0  -5 17.3986 41.6957   1
   3   0  -5 47.0320 38.7773   3
   3   0  -5 23.5008 23.8036   6
   3   0  -4 40.8753 37.9019   2
  -3   0  -4 50.4746 54.2837   1
   3   0  -4-22.6636 23.6929   3
  -3   0  -4-9.07770 16.4329   9
   3   0  -4 8.00831 25.2822   8
   3   0  -4-5.85380 16.3363   6
   3   0  -3 27.4509 20.6200   6
   3   0  -3 21.6719 24.4939   8
   3   0  -3 59.7253 28.7902   3
  -3   0  -3 20.9359 42.1653   1
   3   0  -3 15.6163 25.5447   2
  -3   0  -2 48.4260 21.2674   7
   3   0  -2 28.6911 25.9723   2
   3   0  -2-5.44382 24.7922   8
   3   0  -2 25.2168 17.7478   3
   3   0  -1 15.9869 13.9762   3
  -3   0  -1 24.8534 17.0129   5
  -3   0  -1-13.7129 35.4121  10
   3   0  -1 5.85040 19.8462   8
  -3   0  -1 30.7155 39.6116   1
   3   0  -1 7.38433 21.7863   2
  -3   0  -1 52.8227 27.0034   7
  -3   0   0 28.2986 18.1008   7
   3   0   0 43.9118 20.3204   2
   3   0   0 46.1075 20.3861   5
  -3   0   0 26.8841 20.4925   6
  -3   0   0 12.7443 16.8140   5
  -3   0   0 21.9134 32.6323  10
   3   0   0 21.5233 20.4054   8
  -3   0   1 48.9668 45.1653  10
   3   0   1 29.9306 16.0979   5
  -3   0   1 32.4426 17.4883   3
   3   0   1 29.0126 16.5354   2
  -3   0   1 21.6850 22.0067   6
   3   0   2 28.6705 22.9495   5
   3   0   2 25.0917 21.5202   9
   3   0   2 38.3155 14.1768   6
   3   0   2 18.4853 15.1448   4
  -3   0   2 23.7845 22.0023   6
   3   0   2 42.4958 24.6915   3
  -3   0   2 63.7029 26.0272   3
   3   0   3 22.6491 10.6386   6
   3   0   3 16.0254 30.9526   3
   3   0   3 32.8590 18.7776   9
  -3   0   3 8.99748 25.5771   8
   3   0   3 12.8214 10.9889   4
  -3   0   3 5.63678 27.8567   3
  -3   0   3 40.0798 25.4253   6
   3   0   3 12.6960 25.2902   5
   3   0   4 1.08918 25.5638   3
   3   0   4 54.5679 28.1279   7
  -3   0   4 9.74062 28.0243   8
   3   0   4 19.3064 29.4860   5
   3   0   4 29.5567 10.8835   4
   3   0   4 25.5651 19.1312   9
  -3   0   4 24.8841 26.8027   3
  -3   0   5 34.4538 35.2877   3
   3   0   5 81.1299 38.7127   3
   3   0   5-24.0241 31.3653   7
   3   0   5 44.8889 26.3710   9
   3   0   5 24.3724 22.7951   2
  -3   0   5 37.3164 28.2199   8
   3   0   5 31.4038 32.8753   5
   3   0   6-9.65520 33.4057   3
   3   0   6 69.4690 45.6394   5
  -3   0   6 43.3920 35.2423   8
  -3   0   6-6.00332 34.7329   2
   3   0   6 7.09654 24.1267   2
   3   0   6 29.6119 22.7449   9
   3   0   6 2.46023 27.4430   7
  -3   0   6 50.3943 38.9835   3
   3   0   7 50.7710 42.3496   7
   3   0   7 52.7576 30.3265   9
   3   0   7-4.96603 41.5534   3
   3   0   7-42.4864 31.6718   2
  -3   0   7-5.05604 28.1217   8
  -3   0   7 25.5933 35.3248   3
  -3   0   8 42.8864 48.5012   3
   3   0   8 5.96662 30.3499   2
   3   0   8 44.6801 19.4000   9
  -3   0   8 24.5163 29.6959   8
   3   0   8 21.6824 30.3822   8
   3   0   8 13.4992 30.0108   7
   3   0   8 28.7177 41.5630   3
   3   0   9 35.3091 26.3617   8
  -3   0   9 40.4471 54.5292   3
  -3   0   9-18.7711 27.7204   8
   3   0   9-50.8138 42.8985   3
   3   0  10-40.9887 37.4903   3
  -3   0  10 8.06840 29.6000   8
   3   0  10 41.9186 29.0803   8
  -3   0  10 2.31905 53.3953   3
   3   0  11-52.6854 70.0515   3
  -3   0  11-35.3599 49.7829   3
   3   0  12 196.695 91.3414   3
  -3   0  12 181.269 94.5627   3
   3  -1 -12 4719.96 414.335   1
  -3  -1 -12 4946.19 422.028   1
  -3   1 -11-16.7209 63.3730   1
  -3  -1 -11-11.7862 67.8687   1
   3  -1 -11-13.8120 70.3843   1
   3   1 -11 48.9670 72.5420   1
  -3  -1 -10 4442.81 359.396   1
   3   1 -10 6033.19 416.315   1
  -3   1 -10 4955.23 386.702   1
   3  -1 -10 5153.76 386.669   1
   3   1  -9 565.670 35.4383   9
   3  -1  -9 876.490 154.730   1
  -3   1  -9 669.796 134.932   1
   3   1  -9 808.283 78.0993   4
   3  -1  -9 666.581 91.1554   9
  -3  -1  -9 692.711 146.380   1
   3  -1  -9 744.206 91.0737   4
   3  -1  -9 580.126 102.119   2
   3   1  -9 739.116 74.2878   6
   3   1  -9 744.864 155.414   1
   3   1  -8 10436.8 347.452   6
  -3  -1  -8 10007.2 351.429   9
   3   1  -8 10124.7 287.636   9
   3   1  -8 10492.4 355.719   4
   3   1  -8 10334.0 303.997   9
  -3   1  -8 10779.9 524.668   1
  -3  -1  -8 9853.80 500.605   1
  -3  -1  -8 9894.69 306.403   4
   3  -1  -8 9838.27 427.257   2
   3  -1  -7 573.969 92.6025   2
   3  -1  -7 649.507 61.4395   8
  -3  -1  -7 683.675 118.833   1
   3   1  -7 648.440 70.7954   4
   3   1  -7 630.873 53.0025   9
  -3  -1  -7 588.761 53.5582   4
   3   1  -7 604.939 67.9420   6
  -3   1  -7 821.100 128.152   1
   3   1  -7 592.567 50.2758   9
  -3  -1  -7 626.354 68.6076   9
   3   1  -6 22662.9 591.876   9
   3  -1  -6 22642.2 608.555   8
  -3  -1  -6 22525.4 642.647   9
   3   1  -6 23083.9 639.136   4
  -3  -1  -6 22234.6 605.403   4
   3  -1  -6 23512.3 707.957   2
   3  -1  -6 21886.6 643.740   6
   3   1  -6 23754.4 637.330   6
   3   1  -6 24514.0 714.469   3
  -3  -1  -6 21969.6 762.352   1
   3   1  -6 24158.6 699.811   8
  -3   1  -6 22493.2 779.745   1
  -3   1  -6 24397.3 711.494   3
   3  -1  -6 23885.9 691.227   9
   3  -1  -5 4720.92 213.300   9
  -3  -1  -5 4433.00 252.098   1
   3  -1  -5 4177.20 163.685   8
   3   1  -5 4404.25 186.481   4
   3   1  -5 4577.08 213.279   8
   3   1  -5 4470.02 160.977   9
   3  -1  -5 4434.63 193.087   6
  -3  -1  -5 4319.22 187.996   9
   3   1  -5 4539.86 185.061   6
  -3   1  -5 4202.76 255.893   1
  -3   1  -5 3930.09 118.489   6
  -3  -1  -5 4190.92 166.805   4
   3  -1  -5 4362.27 217.866   2
   3   1  -4 43297.9 1123.48   8
  -3   1  -4 43487.6 1096.16   7
  -3  -1  -4 41220.3 1095.49   9
   3  -1  -4 45837.8 1122.88   9
  -3  -1  -4 42821.9 1177.82   1
   3  -1  -4 44093.9 1135.70   2
   3  -1  -4 43173.8 1066.32   8
  -3   1  -4 42673.8 1194.61   1
  -3  -1  -4 42593.4 1136.80   5
   3   1  -4 44752.1 1065.00   9
   3  -1  -4 44126.2 1104.86   6
  -3   1  -4 45203.4 1117.43   3
   3   1  -4 43821.3 1096.41   4
  -3  -1  -4 42253.7 1072.53   4
  -3   1  -4 45003.0 1028.40   6
  -3  -1  -3 18201.6 541.284   1
  -3  -1  -3 16954.9 509.954   5
  -3  -1  -3 16575.7 488.616   9
  -3   1  -3 16995.2 443.583   6
   3  -1  -3 17647.9 501.125   9
  -3   1  -3 17755.6 486.751   3
  -3  -1  -3 17120.9 473.505   4
   3  -1  -3 17150.7 494.085   6
   3   1  -3 17368.8 505.719   8
  -3   1  -3 17206.2 482.336   7
   3  -1  -3 17097.3 507.753   2
   3  -1  -3 17535.6 468.322   8
   3   1  -3 17858.8 491.040   4
   3   1  -3 17654.2 468.988   9
  -3   1  -3 17755.1 553.643   1
   3   1  -2 38675.3 987.758   8
  -3  -1  -2 39830.1 1000.77   1
  -3  -1  -2 37999.7 988.153   5
  -3  -1  -2 38079.7 964.478   4
   3   1  -2 40738.6 965.610   9
   3  -1  -2 38533.8 988.853   2
  -3   1  -2 38546.7 1020.49   1
  -3   1  -2 39352.1 971.133   7
  -3   1  -2 39135.1 950.790   3
   3   1  -2 40668.3 981.805   4
  -3   1  -2 38574.1 945.045   6
  -3  -1  -2 39562.0 941.058   8
  -3   1  -1 7495.65 262.299  10
   3   1  -1 7047.54 241.433   4
   3   1  -1 6909.78 240.233   8
   3   1  -1 6810.03 199.188   7
  -3   1  -1 6963.39 253.326   1
   3  -1  -1 6967.42 241.019   2
   3   1  -1 7152.84 235.916   9
  -3  -1  -1 7270.53 249.848   5
  -3  -1  -1 7391.37 239.832  10
  -3   1  -1 7153.92 225.633   6
  -3  -1  -1 7737.72 242.559   1
  -3  -1  -1 7364.07 224.217   8
  -3   1  -1 7069.85 199.164   3
  -3  -1   0 94031.9 2290.18  10
  -3  -1   0 93495.9 2332.93   5
   3   1   0 102209. 2301.92   4
   3  -1   0 99672.7 2307.67   2
   3   1   0 102942. 2289.33  10
   3   1   0 101437. 2290.72   8
  -3   1   0 99673.0 2231.43   3
   3  -1   0 97149.5 2295.98   1
  -3   1   0 97356.1 2291.72   6
  -3   1   0 91434.0 2313.52  10
   3   1   0 101897. 2301.02   9
   3   1   0 99830.7 2270.82   7
  -3  -1   1 7894.30 244.885   2
   3   1   1 8026.76 261.621   9
   3   1   1 7684.49 238.001   8
   3   1   1 7783.55 258.396  10
  -3  -1   1 8381.26 282.564   5
   3   1   1 7794.05 261.649   1
  -3   1   1 8305.23 276.827  10
  -3   1   1 8040.98 212.942   5
  -3   1   1 7900.63 256.949   6
  -3  -1   1 7647.27 260.300  10
   3  -1   1 7908.35 244.411   6
   3   1   1 7697.79 254.326   4
   3  -1   1 8132.68 219.215   3
   3   1   2 41541.6 1064.88   9
  -3  -1   2 42965.7 1073.85   3
   3   1   2 42899.7 1057.86   4
  -3   1   2 43606.9 1035.53   5
   3   1   2 40932.1 1081.78  10
   3   1   2 42572.7 1023.96   8
  -3  -1   2 43525.2 993.870   7
  -3  -1   2 43759.5 1081.18   5
   3  -1   2 44238.3 1039.74   3
  -3   1   2 42473.8 1065.10   6
  -3   1   2 43315.3 1027.03   3
   3  -1   2 43020.3 1033.66   6
   3   1   2 41918.0 1086.37   1
   3  -1   3 17872.9 493.251   3
  -3   1   3 17463.3 481.616   3
   3   1   3 17753.4 504.018   9
  -3   1   3 16730.4 495.591   6
   3   1   3 17783.1 444.044   8
   3  -1   3 17838.3 447.921   4
   3   1   3 17614.3 431.835   2
   3  -1   3 17555.4 491.248   7
   3   1   3 18288.3 498.846   4
  -3   1   3 17354.0 490.013   5
   3   1   3 17590.0 539.587   1
  -3  -1   3 17357.4 510.157   3
   3   1   4 41992.0 992.880   8
  -3   1   4 42884.0 1072.87   3
  -3   1   4 43030.1 1073.46   6
   3   1   4 42388.9 1013.51   2
  -3  -1   4 41604.5 1088.16   8
   3   1   4 43871.7 1147.36   1
   3   1   4 42933.5 1087.25   9
   3  -1   4 43677.3 1069.35   7
   3  -1   4 42112.5 986.024   4
   3  -1   4 42868.8 1083.94   3
   3   1   4 41015.7 1071.90   4
  -3  -1   4 42037.7 1097.38   3
   3   1   5 5293.55 267.509   1
   3  -1   5 4138.74 127.178   9
  -3  -1   5 4540.73 212.040   8
   3  -1   5 4558.61 130.673   9
  -3   1   5 4374.75 207.717   3
   3   1   5 4717.73 190.898   4
   3   1   5 4126.62 217.770   3
  -3   1   5 4681.76 223.165   2
   3  -1   5 4634.04 198.908   7
  -3  -1   5 4597.39 224.138   3
  -3   1   5 4633.04 200.158   6
   3   1   5 4463.35 133.044   8
   3   1   5 4521.72 172.102   2
   3  -1   5 4810.69 220.390   3
   3   1   5 4824.96 220.189   9
  -3   1   6 24725.0 690.256   5
   3   1   6 19120.2 512.936   8
  -3  -1   6 21941.5 646.375   8
   3  -1   6 23761.9 636.352   7
  -3   1   6 23045.2 626.085   6
   3   1   6 21834.9 518.155   8
  -3   1   6 24235.7 683.895   2
   3   1   6 22401.8 660.944   9
   3   1   6 20604.2 547.842   6
  -3   1   6 21595.1 656.628   3
   3   1   6 21187.7 673.209   3
  -3  -1   6 24222.6 698.097   2
   3  -1   6 22616.8 671.151   3
   3   1   6 22431.5 598.145   2
   3   1   6 24151.5 707.052   5
  -3  -1   6 22411.2 679.014   3
  -3  -1   7 404.942 68.9740   8
  -3   1   7 385.216 75.6151   3
   3   1   7 428.542 36.6443   6
  -3  -1   7 390.727 80.0556   3
   3  -1   7 416.265 64.8521   7
  -3   1   7 384.874 74.7883   2
   3   1   7 375.446 54.8187   2
   3   1   7 498.956 85.7644   3
   3  -1   7 351.237 68.1856   3
   3   1   7 378.856 72.6762   9
  -3   1   7 325.285 57.2179   6
   3  -1   8 10189.5 377.928   7
  -3  -1   8 9084.20 415.917   3
   3  -1   8 9197.95 413.384   3
   3   1   8 9284.46 355.852   2
  -3   1   8 9492.43 411.007   3
   3  -1   8 9992.59 398.081   8
   3   1   8 10674.5 380.446   9
  -3   1   8 10198.1 353.077   6
   3   1   8 9649.56 426.940   3
  -3  -1   8 9219.61 376.506   8
   3   1   9 758.362 116.912   3
  -3  -1   9 1023.82 138.037   3
   3   1   9 870.742 100.016   2
   3  -1   9 956.873 107.589   8
  -3  -1   9 953.816 106.063   8
   3  -1   9 905.042 102.842   7
   3   1   9 921.639 93.1969   9
   3  -1   9 828.741 122.547   3
  -3   1   9 925.371 122.100   3
   3  -1  10 4556.89 303.306   3
  -3   1  10 4930.97 309.408   3
   3   1  10 4572.28 220.495   9
   3  -1  10 5520.10 274.938   8
  -3  -1  10 5081.49 271.509   8
   3   1  10 4771.88 315.389   3
  -3  -1  10 5630.12 336.121   3
   3  -1  11 16.3147 53.7970   3
   3   1  11 83.6096 72.0944   3
   3  -1  11 36.0871 36.7018   8
  -3  -1  11 216.032 66.6361   8
  -3  -1  11 86.2868 60.8397   3
  -3   1  11 33.3168 66.9758   3
  -3  -1  12 5057.67 360.436   3
  -3   1  12 5255.65 355.705   3
   3  -2 -12 3182.31 327.499   1
  -3  -2 -12 3228.37 328.479   1
  -3  -2 -11 693.576 153.606   1
  -3   2 -11 788.533 165.245   1
   3  -2 -11 794.273 157.163   1
   3   2 -11 705.554 161.808   1
   3  -2 -10 10033.3 470.948   2
   3  -2 -10 9633.51 540.233   1
  -3  -2 -10 9976.38 545.576   1
  -3   2 -10 10078.3 563.260   1
   3   2 -10 10713.2 575.398   1
   3  -2  -9 595.710 135.802   1
  -3   2  -9 860.420 148.970   1
   3   2  -9 785.219 80.6497   4
   3  -2  -9 691.798 113.777   2
  -3  -2  -9 816.606 143.043   1
   3   2  -9 1034.88 166.110   1
   3   2  -8 13670.7 439.478   4
  -3   2  -8 12797.7 593.473   1
  -3  -2  -8 13282.5 485.623   9
   3  -2  -8 12763.3 510.629   2
   3   2  -8 12970.4 587.761   1
  -3  -2  -8 13239.2 576.129   1
  -3   2  -7 10540.3 493.480   1
  -3  -2  -7 10921.1 420.427   9
   3   2  -7 10801.4 309.609   9
   3  -2  -7 10811.7 428.422   4
   3  -2  -7 10470.5 459.384   9
  -3  -2  -7 10479.4 473.845   1
  -3   2  -7 11095.2 307.419   6
   3   2  -7 11103.6 378.795   4
   3  -2  -7 10800.2 311.105   8
   3  -2  -7 10289.4 429.479   2
   3   2  -6 9615.30 347.432   4
   3  -2  -6 9502.66 290.451   8
   3  -2  -6 9590.53 387.140   4
  -3  -2  -6 9443.67 316.230   2
  -3  -2  -6 10282.3 392.290   9
   3  -2  -6 10406.3 426.672   9
   3  -2  -6 9548.28 388.447   2
  -3   2  -6 10177.7 303.820   6
   3   2  -6 9808.51 298.983   9
  -3   2  -6 9933.13 391.169   3
  -3   2  -6 9922.66 447.342   1
  -3  -2  -6 10106.8 426.269   1
  -3   2  -5 9993.51 368.408   3
   3  -2  -5 9006.23 287.181   8
  -3   2  -5 9504.72 324.191   7
   3  -2  -5 9466.76 367.812   2
   3   2  -5 9448.39 299.457   9
   3  -2  -5 9780.84 376.125   4
   3   2  -5 9177.23 335.705   4
  -3  -2  -5 9669.85 375.414   9
   3  -2  -5 9677.40 394.603   9
  -3   2  -5 9300.11 306.187   6
  -3  -2  -5 9678.44 294.613   2
  -3  -2  -5 8700.51 376.722   5
  -3   2  -5 9853.09 415.290   1
  -3  -2  -5 10279.5 396.220   1
  -3  -2  -4 38205.9 1012.41   4
  -3  -2  -4 35631.6 1029.17   5
   3   2  -4 37162.1 984.600   4
  -3   2  -4 38498.1 1056.71   1
  -3   2  -4 36500.1 959.858   7
   3   2  -4 37899.4 948.700   9
  -3   2  -4 38200.6 959.936   6
   3  -2  -4 36128.6 1008.14   2
  -3  -2  -4 37776.1 914.284   2
  -3  -2  -4 37831.2 1014.86   1
   3   2  -3 17505.1 528.585   4
   3  -2  -3 17074.9 540.565   2
  -3   2  -3 16850.8 503.506   7
  -3  -2  -3 17594.2 468.513   8
   3   2  -3 17224.7 502.172   9
  -3   2  -3 18359.9 519.340   3
  -3  -2  -3 18444.6 527.512   1
  -3  -2  -3 18161.2 566.258   5
  -3   2  -3 17887.7 562.496   1
  -3   2  -3 17573.9 514.751   6
  -3  -2  -3 17696.0 456.333   2
  -3  -2  -3 18277.2 551.543   4
   3   2  -3 17925.2 559.132   8
  -3   2  -2 60742.3 1489.67   1
   3  -2  -2 59731.0 1441.87   5
  -3  -2  -2 61618.3 1409.21   2
   3   2  -2 59245.8 1462.87   9
  -3   2  -2 59921.0 1475.71   6
  -3   2  -2 58286.5 1445.03   3
   3   2  -2 61436.0 1487.93   4
   3   2  -2 59003.2 1381.31   7
   3  -2  -2 59135.8 1493.57   2
  -3  -2  -2 60655.2 1439.06   1
  -3  -2  -2 57647.2 1430.60   8
  -3  -2  -2 59410.9 1499.06   4
   3   2  -2 59683.4 1500.07   8
  -3  -2  -2 61021.8 1522.28   5
   3   2  -1 12615.6 414.022   4
   3  -2  -1 13156.2 428.315   2
   3   2  -1 12816.0 404.824   9
   3  -2  -1 13102.6 370.631   5
   3   2  -1 12497.1 413.570   8
  -3   2  -1 12912.6 403.737   9
  -3  -2  -1 12849.4 388.331   8
  -3   2  -1 12858.9 376.533   3
  -3   2  -1 12830.4 414.933   6
  -3   2  -1 13510.5 396.925   1
  -3  -2  -1 12741.2 443.841   5
  -3   2  -1 13492.9 410.557  10
  -3   2   0 40931.0 1026.24  10
  -3  -2   0 41145.4 968.928  10
  -3   2   0 39415.3 997.967   5
   3  -2   0 39937.6 1076.04   2
   3  -2   0 40499.4 1001.17   1
  -3  -2   0 40464.1 1034.99   8
   3   2   0 39358.8 1029.19   8
   3   2   0 41078.4 1053.97   4
   3  -2   0 41474.0 1031.03  10
  -3   2   0 40698.4 1051.86   6
   3   2   0 39529.2 1042.88   9
  -3  -2   0 42042.7 1110.94   5
  -3   2   0 41654.9 1050.38   9
   3  -2   0 39238.9 998.273   5
   3  -2   1 13683.3 419.361  10
   3   2   1 13519.3 379.579   1
  -3  -2   1 12721.7 412.552   9
  -3   2   1 13886.1 411.680  10
   3   2   1 13240.9 398.593   8
   3  -2   1 13561.6 421.668   4
  -3   2   1 13362.4 389.079   5
   3   2   1 13221.2 431.487   9
  -3   2   1 13550.7 436.508   9
  -3   2   1 13426.9 431.797   6
   3   2   1 13210.9 364.981  10
   3  -2   1 12849.7 407.843   9
   3  -2   1 13016.4 389.218   5
  -3  -2   1 12895.9 464.256   5
   3  -2   1 13384.3 403.876   1
  -3  -2   1 13798.4 379.426  10
   3   2   1 13073.5 430.652   4
   3  -2   2 59246.6 1448.10   3
   3   2   2 60748.2 1443.46  10
  -3  -2   2 60265.0 1482.84   4
  -3   2   2 59448.6 1472.58  10
   3  -2   2 59265.5 1452.37   9
  -3   2   2 59689.2 1495.49   6
  -3   2   2 58478.1 1435.78   5
   3   2   2 58608.9 1430.08   8
   3   2   2 59131.9 1503.45   4
   3   2   2 60715.8 1446.07   1
   3  -2   2 57911.0 1482.05  10
  -3  -2   2 59708.4 1461.53   9
   3  -2   2 60722.6 1441.96   5
   3  -2   2 59658.4 1486.15   1
   3  -2   2 59270.6 1474.77   4
   3   2   2 60121.8 1506.86   9
  -3   2   2 60294.5 1507.49   9
  -3  -2   2 60286.3 1526.04   5
  -3  -2   3 17422.2 514.212   9
  -3   2   3 17767.1 556.167   6
   3  -2   3 18652.4 536.596   4
   3   2   3 18452.1 579.642   4
   3   2   3 18605.9 485.615   8
  -3   2   3 18885.2 531.180   5
   3   2   3 18264.7 574.986   9
   3   2   3 18719.2 538.218   1
   3  -2   3 19336.3 585.280   1
  -3  -2   3 17951.9 542.696   4
  -3   2   3 18610.0 576.114   9
   3  -2   3 17814.5 509.202   9
  -3  -2   3 17777.9 574.811   5
   3  -2   3 18957.7 570.978  10
   3  -2   3 17776.4 529.499   3
  -3   2   3 19236.3 564.708   2
   3   2   4 39453.9 1013.82   1
  -3   2   4 37867.6 1024.71   9
   3   2   4 38141.9 1036.60   4
  -3  -2   4 35606.6 1019.84   3
   3  -2   4 37471.8 932.062   9
  -3  -2   4 36713.2 978.203   4
   3  -2   4 37004.2 950.605   4
   3   2   4 37732.6 913.401   2
  -3   2   4 36932.4 989.349   5
  -3   2   4 36662.9 999.018   6
   3   2   4 36283.6 1035.58   9
  -3   2   4 37239.8 978.601   3
  -3   2   4 38857.8 1016.70   2
   3  -2   4 37455.3 992.088   3
  -3  -2   4 35856.7 1027.18   5
  -3  -2   5 9550.04 385.556   3
   3  -2   5 9365.12 289.566   4
   3   2   5 9507.61 374.885   4
  -3  -2   5 9580.03 387.301   8
  -3   2   5 9820.79 376.972   9
  -3   2   5 9385.43 352.057   3
   3   2   5 9822.48 299.491   2
   3   2   5 8986.46 390.362   9
  -3   2   5 10174.1 379.402   2
  -3   2   5 9941.28 368.860   5
   3  -2   5 9903.73 285.506   9
  -3  -2   5 9964.69 390.065   2
  -3  -2   5 8970.23 334.407   4
  -3   2   5 9630.74 357.065   6
   3  -2   5 9347.12 364.472   3
  -3   2   6 10301.8 391.668   2
   3   2   6 9509.64 369.736   4
   3   2   6 9759.40 414.620   9
   3   2   6 9514.99 347.872   6
  -3   2   6 9159.37 355.716   6
  -3  -2   6 9731.22 396.118   8
  -3   2   6 9373.34 369.372   3
  -3   2   6 9830.61 387.762   5
   3   2   6 9236.60 310.532   2
   3  -2   6 9339.31 379.859   3
   3  -2   6 9154.67 261.636   4
  -3  -2   6 9465.08 397.600   3
   3  -2   7 10984.7 445.788   3
   3   2   7 11253.2 461.358   3
   3  -2   7 11408.9 382.468   7
  -3  -2   7 11590.4 471.466   3
  -3  -2   7 11314.8 453.599   8
   3   2   7 11186.6 464.723   9
  -3   2   7 10293.1 425.743   3
   3   2   7 11165.7 371.922   2
   3   2   7 11777.4 383.280   6
  -3   2   7 10958.5 406.439   6
   3   2   8 11314.8 469.457   9
   3  -2   8 10927.0 386.834   7
   3   2   8 10999.3 388.828   2
  -3  -2   8 11121.6 460.290   8
   3   2   8 10688.8 474.026   3
   3   2   8 11584.7 369.731   6
  -3   2   8 11645.4 419.746   6
  -3   2   8 10777.4 455.803   3
   3  -2   8 11204.4 470.121   3
   3  -2   8 11308.0 489.531   8
  -3  -2   8 10620.9 476.557   3
  -3  -2   9 767.655 122.033   3
   3  -2   9 838.295 124.981   3
   3   2   9 785.172 119.344   3
   3   2   9 904.829 117.566   9
   3   2   9 913.238 75.0887   6
   3  -2   9 738.690 120.483   8
  -3  -2   9 737.007 112.563   8
  -3   2   9 867.957 102.217   6
  -3   2   9 583.541 103.130   3
   3  -2   9 794.366 88.2009   7
   3   2  10 10326.9 438.957   9
   3  -2  10 10436.1 475.651   8
  -3  -2  10 10380.5 463.006   8
  -3   2  10 10660.1 401.936   6
   3   2  10 9770.57 487.347   3
  -3   2  10 10285.7 483.423   3
   3  -2  10 10027.7 490.370   3
  -3  -2  10 10280.5 502.744   3
   3  -2  11 793.417 140.070   3
   3   2  11 649.739 128.125   3
  -3   2  11 567.410 120.085   3
  -3  -2  11 524.143 101.092   8
   3  -2  11 778.974 124.010   8
  -3  -2  11 784.349 145.534   3
  -3   2  12 3473.60 291.812   3
   3  -3 -12 1847.87 249.100   1
  -3  -3 -12 2116.84 261.322   1
  -3  -3 -11 85.7246 87.0935   1
   3   3 -11-6.93998 96.2540   1
   3  -3 -11 98.0571 58.3116   2
   3  -3 -11-16.8638 71.1780   1
  -3   3 -11 29.9280 58.0795   1
   3   3 -10 3998.51 334.737   1
   3  -3 -10 4353.46 299.449   2
  -3   3 -10 4479.19 357.448   1
   3  -3 -10 4654.61 343.401   1
  -3  -3 -10 4622.60 335.400   1
   3  -3  -9 317.463 89.5327   2
  -3   3  -9 585.763 135.611   1
   3   3  -9 469.427 72.4351   4
  -3  -3  -9 316.704 83.1224   1
   3   3  -9 285.863 99.5913   1
   3  -3  -9 489.344 117.593   1
  -3  -3  -8 5301.94 244.218   2
  -3   3  -8 5134.70 346.254   1
  -3   3  -8 5541.14 227.687   6
   3   3  -8 4991.52 338.269   1
   3  -3  -8 5944.99 345.479   1
   3  -3  -8 5021.45 301.660   2
   3   3  -8 5610.73 269.211   4
  -3  -3  -8 5512.97 324.788   1
   3   3  -7 3035.57 151.433   9
   3   3  -7 3076.72 191.845   4
   3  -3  -7 3070.95 216.410   2
   3  -3  -7 3400.59 244.345   1
   3   3  -7 3053.31 240.541   1
  -3   3  -7 2879.41 167.028   6
  -3  -3  -7 3038.92 164.735   2
  -3   3  -7 2710.39 231.949   1
   3  -3  -7 3061.26 120.246   8
  -3  -3  -7 2518.32 200.389   1
  -3   3  -6 9878.80 374.020   6
   3   3  -6 10121.3 397.699   4
  -3  -3  -6 9980.29 432.010   4
  -3  -3  -6 9687.55 452.536   5
   3   3  -6 10654.5 357.360   9
  -3  -3  -6 10253.5 346.931   2
   3   3  -6 10386.9 452.300   1
  -3   3  -6 10899.7 369.385   7
   3  -3  -6 10383.9 429.630   2
  -3  -3  -6 10721.5 420.192   1
  -3   3  -6 10195.3 456.226   1
   3  -3  -6 10359.7 319.285   8
  -3  -3  -5 664.982 48.5018   8
  -3  -3  -5 704.628 88.3246   1
  -3  -3  -5 812.815 71.3685   2
  -3   3  -5 728.458 86.7484   6
  -3  -3  -5 683.491 105.595   5
   3   3  -5 830.528 87.6817   9
  -3   3  -5 600.535 97.2328   1
   3   3  -5 811.669 95.3667   4
  -3   3  -5 656.777 72.6976   7
  -3  -3  -5 710.033 101.747   4
   3  -3  -5 848.676 105.710   2
  -3   3  -5 811.207 100.728   3
  -3  -3  -4 10615.4 441.007   4
   3   3  -4 10996.4 386.038   9
  -3   3  -4 11191.4 424.890   1
  -3  -3  -4 11156.8 455.622   9
  -3  -3  -4 11104.2 334.908   8
  -3  -3  -4 11825.5 378.194   1
  -3  -3  -4 11306.1 349.552   2
   3   3  -4 10881.3 413.894   4
   3  -3  -4 10156.3 415.697   2
   3  -3  -4 11245.3 453.624   4
   3  -3  -4 10036.8 398.070   5
  -3   3  -4 10784.9 373.019   7
  -3  -3  -4 10368.7 447.957   5
  -3   3  -4 10901.4 409.029   6
  -3   3  -4 11196.9 411.691   3
   3  -3  -3 7709.17 351.753   4
   3   3  -3 7503.60 305.944   9
  -3   3  -3 8040.53 317.036   1
   3  -3  -3 7591.85 334.537   2
  -3   3  -3 7174.79 322.725   6
  -3  -3  -3 8247.70 281.590   8
   3   3  -3 7496.11 326.076   4
  -3  -3  -3 7473.92 353.595   5
  -3  -3  -3 7824.85 272.348   2
   3  -3  -3 7501.72 306.408   5
  -3  -3  -3 7326.56 256.541   1
  -3  -3  -3 7638.76 351.717   9
   3  -3  -3 8471.88 374.873   9
  -3  -3  -3 7731.25 352.097   4
   3   3  -3 7959.39 356.731   3
   3   3  -2 17909.1 582.935   4
  -3  -3  -2 16509.8 600.970   5
   3  -3  -2 18894.4 549.352   5
   3  -3  -2 17715.8 590.251   2
  -3  -3  -2 17102.6 519.487   2
   3   3  -2 17855.6 563.613   9
  -3  -3  -2 16968.3 596.029   4
  -3  -3  -2 18346.8 535.533   8
  -3   3  -2 18049.2 527.668   1
  -3   3  -2 16730.1 575.231   6
  -3   3  -2 17293.5 552.439   9
  -3   3  -1 7490.74 292.616   3
  -3  -3  -1 7662.52 350.900   5
  -3   3  -1 6582.01 315.604   6
   3  -3  -1 7834.93 238.319   1
   3  -3  -1 7092.83 329.863   2
   3   3  -1 7548.96 326.619   4
   3  -3  -1 7117.24 283.511   5
  -3   3  -1 7349.05 313.462   9
   3   3  -1 7378.93 315.021   9
  -3   3   0 23979.8 632.667  10
   3   3   0 22468.7 704.481   9
  -3  -3   0 23787.9 715.741   9
   3   3   0 22109.4 711.134   4
   3   3   0 23239.5 579.617   1
   3  -3   0 22593.5 715.401   4
  -3  -3   0 22932.6 747.875   5
   3  -3   0 21324.4 722.247   2
  -3   3   0 21706.2 708.291   6
   3  -3   0 22884.9 632.111  10
  -3   3   0 24839.1 670.856   5
   3  -3   0 22772.6 600.742   1
   3  -3   0 22725.4 711.313   9
  -3   3   0 21843.4 700.790   9
   3  -3   0 22742.8 659.663   5
  -3   3   1 7416.93 293.233   5
   3  -3   1 7091.58 309.564   9
   3  -3   1 7342.67 269.749  10
   3   3   1 6770.78 316.473   9
  -3   3   1 6636.07 315.272   9
  -3  -3   1 7071.75 317.097   8
  -3  -3   1 7860.31 328.346   4
  -3   3   1 7182.83 259.450  10
  -3  -3   1 6638.67 202.755  10
   3   3   1 7077.27 210.302   1
   3   3   1 6784.12 320.466   4
   3  -3   1 7012.63 250.781   1
  -3   3   1 6625.41 314.729   6
  -3  -3   1 7509.56 314.270   9
   3  -3   1 7316.05 322.530   4
  -3  -3   1 7175.53 349.289   5
   3  -3   1 7498.81 297.999   5
  -3  -3   2 20994.9 648.164   4
  -3  -3   2 21163.7 626.849   9
  -3   3   2 20432.1 581.502  10
   3   3   2 20343.0 525.587   1
   3  -3   2 20153.0 584.855   1
  -3   3   2 18596.3 651.102   9
   3  -3   2 20025.0 590.741  10
   3   3   2 19589.9 517.938  10
   3  -3   2 20531.5 628.988   9
   3  -3   2 20133.5 641.127   4
   3   3   2 19573.3 664.937   4
   3   3   2 19958.8 665.048   9
  -3   3   2 19829.8 654.481   6
   3  -3   2 19818.6 608.789   5
  -3  -3   2 19846.2 683.384   5
  -3   3   2 20793.1 610.572   5
   3  -3   3 7252.40 314.511   4
   3  -3   3 6709.90 294.587   9
  -3  -3   3 7449.97 297.518   9
  -3   3   3 7506.59 323.732   2
   3   3   3 7128.88 347.333   9
   3   3   3 7567.63 261.720  10
  -3  -3   3 7019.48 338.165   8
   3   3   3 7241.17 345.987   4
  -3  -3   3 6692.46 338.442   5
   3  -3   3 7550.76 307.656   1
  -3   3   3 7327.34 290.365  10
   3  -3   3 7356.84 301.365   5
  -3  -3   3 7326.36 317.700   4
  -3   3   3 7483.13 338.854   6
  -3   3   3 6471.21 330.075   9
   3   3   3 7412.93 342.304   5
   3  -3   3 6846.95 292.305  10
  -3   3   4 11341.2 409.060   5
   3  -3   4 11079.9 416.163   3
  -3  -3   4 10745.2 380.450   9
  -3   3   4 10116.7 444.623   9
  -3   3   4 11886.2 439.416   2
   3  -3   4 10809.8 414.335  10
   3   3   4 11063.3 459.123   4
  -3  -3   4 10392.1 451.800   8
   3  -3   4 11182.2 405.310   4
   3  -3   4 11524.8 391.653   9
   3   3   4 11323.5 471.434   9
  -3   3   4 11337.2 443.944   6
   3  -3   4 10840.4 406.808   5
  -3  -3   4 11049.1 459.620   5
  -3  -3   4 11406.1 418.647   4
  -3   3   5 526.583 81.4191   5
   3  -3   5 486.633 59.3178   9
   3  -3   5 460.969 78.6366  10
  -3   3   5 691.839 96.6780   2
  -3   3   5 528.782 96.3754   9
   3   3   5 474.030 98.0746   9
   3  -3   5 459.202 67.6181   4
  -3  -3   5 485.969 65.4241   9
   3   3   5 609.094 101.195   4
  -3   3   5 601.280 95.1449   6
  -3  -3   5 620.536 106.375   5
  -3  -3   5 532.114 100.562   8
   3  -3   5 621.326 94.7274   3
  -3  -3   5 391.666 66.3107   4
   3  -3   6 11229.4 363.679   4
  -3  -3   6 10399.8 460.661   3
  -3  -3   6 10757.0 402.670   4
  -3  -3   6 10717.4 475.285   8
   3   3   6 11126.1 461.490   4
   3  -3   6 10624.6 322.751   9
  -3   3   6 10938.7 438.333   6
  -3   3   6 10813.1 466.827   9
   3   3   6 9117.51 343.740   2
  -3  -3   6 10571.0 468.878   5
   3   3   6 10328.5 473.888   9
  -3   3   6 10892.9 428.462   3
   3  -3   6 10616.0 436.621   3
  -3  -3   7 2914.75 236.669   3
   3  -3   7 3133.05 148.400   4
  -3  -3   7 2757.95 232.607   8
  -3   3   7 3044.80 230.749   9
   3   3   7 3156.65 208.960   6
  -3   3   7 3295.03 217.687   6
  -3   3   7 3119.11 218.542   3
  -3  -3   7 3160.91 244.232   5
   3   3   7 3344.09 252.037   9
   3   3   7 3185.24 170.559   2
   3  -3   7 3375.04 232.080   3
  -3   3   8 4821.00 272.699   6
  -3  -3   8 4921.25 318.839   3
   3  -3   8 4575.08 324.282   8
   3   3   8 4899.61 320.618   9
   3   3   8 4946.27 260.862   6
  -3   3   8 4551.12 283.787   3
  -3  -3   8 4783.40 316.451   8
   3   3   8 4560.41 303.863   3
   3  -3   8 4980.11 304.306   3
  -3  -3   9 231.331 95.2487   3
   3   3   9 340.473 84.8219   3
   3  -3   9 322.575 89.4241   3
   3   3   9 497.457 106.280   9
   3  -3   9 354.465 110.851   8
  -3   3   9 214.026 74.7214   3
   3   3   9 360.681 78.1670   6
  -3  -3   9 242.015 88.6194   8
  -3   3   9 303.038 71.3923   6
  -3  -3  10 4765.76 342.490   3
   3   3  10 3949.61 291.449   9
  -3  -3  10 4306.79 314.845   8
  -3   3  10 4667.96 269.253   6
   3  -3  10 4100.34 315.559   8
   3  -3  10 4237.97 308.619   3
   3   3  10 4191.57 313.776   3
  -3   3  10 4042.82 294.911   3
   3  -3  11 163.537 87.6345   3
   3   3  11 44.6279 67.7482   9
  -3  -3  11 127.739 74.3691   8
   3  -3  11 39.1929 72.3160   8
  -3   3  11 92.1072 75.0056   3
   3   4 -10-89.0258 83.2217   1
   3  -4 -10 132.512 67.6073   2
  -3   4 -10-81.5531 94.3724   1
   3  -4  -9 217.945 76.8990   2
  -3   4  -9 147.077 82.0949   1
   3  -4  -9 203.158 76.2044   1
   3   4  -9 218.405 97.0092   1
   3  -4  -8 304.629 74.9401   1
   3   4  -8 418.420 108.619   1
   3  -4  -8 295.012 93.9656   2
  -3  -4  -8 207.110 59.8753   1
   3   4  -8 330.969 73.0671   4
  -3   4  -8 313.791 96.7603   1
   3   4  -7 610.339 81.2783   9
  -3  -4  -7 558.020 88.5331   1
  -3  -4  -7 855.826 141.823   5
  -3  -4  -7 705.394 85.4887   2
  -3   4  -7 600.303 90.8479   6
   3  -4  -7 569.217 111.553   2
   3   4  -7 462.488 85.2701   4
  -3   4  -7 643.184 119.162   1
   3  -4  -7 655.207 98.3273   1
   3   4  -7 644.213 111.431   1
  -3  -4  -6 201.220 50.2035   2
  -3  -4  -6 120.830 77.5892   5
  -3   4  -6 198.813 50.4974   7
  -3   4  -6 135.376 43.5645   6
  -3  -4  -6 158.990 45.3970   1
   3   4  -6 151.863 46.7757   9
   3  -4  -6 140.366 52.7551   1
   3   4  -6 89.3654 52.6342   1
   3   4  -6 96.7135 46.5031   4
   3  -4  -6 117.834 62.7821   2
  -3   4  -6 184.626 65.1027   1
   3  -4  -5 405.321 62.6624   1
   3  -4  -5 347.213 80.9882   5
  -3   4  -5 370.894 80.4804   1
  -3  -4  -5 333.154 57.2778   2
  -3  -4  -5 207.454 38.3833   8
  -3  -4  -5 116.994 52.3429   5
  -3   4  -5 231.364 54.4530   7
   3   4  -5 314.328 77.3770   1
   3   4  -5 335.457 81.9452   4
  -3   4  -5 298.564 70.7491   6
   3  -4  -5 228.174 64.8312   2
  -3  -4  -5 380.591 56.0465   1
   3   4  -5 366.532 72.5557   9
   3   4  -4 488.909 29.8939   7
   3   4  -4 689.135 98.8161   9
  -3  -4  -4 592.936 114.007   5
   3  -4  -4 649.133 69.6867   1
  -3   4  -4 610.871 87.4618   1
   3  -4  -4 529.325 100.338   2
   3   4  -4 501.098 29.9375   7
  -3  -4  -4 770.737 84.2282   8
   3  -4  -4 588.633 90.2800   5
  -3  -4  -4 742.992 85.8363   2
  -3   4  -4 495.994 93.9326   6
  -3   4  -4 622.945 82.9496   7
   3   4  -4 655.122 105.846   4
   3   4  -4 650.001 88.7037   1
   3   4  -3 1422.95 112.752   1
  -3  -4  -3 1257.74 156.204   5
  -3   4  -3 1324.78 129.230   9
   3   4  -3 1318.06 149.830   4
  -3   4  -3 1198.94 136.623   6
   3  -4  -3 1178.11 137.957   2
  -3   4  -3 1423.96 115.405   1
   3   4  -3 1466.95 139.309   9
  -3  -4  -3 1388.06 120.656   2
  -3   4  -3 1351.51 134.727   3
   3  -4  -3 1541.89 143.345   5
  -3   4  -2 1931.41 116.704   1
  -3   4  -2 1733.18 153.013   9
   3   4  -2 1355.20 142.939   9
   3  -4  -2 1447.22 136.473   5
  -3  -4  -2 1547.42 162.307   5
  -3  -4  -2 1719.08 138.850   2
  -3  -4  -2 1843.20 147.935   8
  -3   4  -2 1594.97 156.907   6
   3   4  -2 1857.31 172.864   4
   3  -4  -2 1792.75 78.0507   1
   3   4  -2 1704.96 104.459   1
   3  -4  -2 1389.00 149.500   2
  -3   4  -2 1731.29 148.471   3
  -3   4  -1 5816.80 278.315   3
   3   4  -1 4992.31 297.251   4
  -3   4  -1 4868.36 277.568   9
   3  -4  -1 4775.03 146.375   1
   3   4  -1 4708.48 281.462   9
   3   4  -1 5200.05 165.489   1
  -3  -4  -1 5455.87 268.852   2
   3  -4  -1 4754.25 290.960   2
  -3   4  -1 5047.30 295.968   6
   3   4  -1 5343.95 166.142   1
   3  -4  -1 4507.87 248.659   5
  -3  -4  -1 4869.09 269.121   8
  -3  -4  -1 5102.30 307.089   5
   3  -4   0 1889.18 84.9166   1
  -3   4   0 1695.31 170.702   6
   3  -4   0 2141.95 160.817   5
   3   4   0 1754.50 171.189   9
  -3   4   0 1811.26 171.218   9
  -3  -4   0 2092.07 193.145   5
   3   4   0 1763.42 173.224   4
  -3   4   0 2005.78 154.065   5
   3  -4   0 2085.25 190.849   2
  -3  -4   0 1809.36 164.704   8
   3  -4   1 5477.67 217.622  10
   3  -4   1 5682.13 303.782   9
   3  -4   1 5883.27 329.411   2
  -3   4   1 5743.57 211.010  10
   3   4   1 4767.77 296.132   9
   3   4   1 4950.39 305.080   4
  -3   4   1 4958.32 301.792   6
  -3  -4   1 4582.43 286.046   8
  -3   4   1 5065.23 298.139   9
  -3   4   1 5909.47 281.969   5
  -3  -4   1 5282.50 318.176   5
   3  -4   1 5078.88 266.501   5
  -3  -4   2 1781.90 71.2154  10
  -3  -4   2 1931.26 166.106   9
  -3   4   2 1984.24 183.526   9
  -3   4   2 1899.64 157.387   5
   3  -4   2 1732.98 161.037   9
   3  -4   2 1948.27 127.074  10
   3   4   2 1798.32 178.496   4
  -3   4   2 1874.21 117.301  10
  -3  -4   2 1859.88 182.624   8
  -3   4   2 1576.63 167.668   6
   3   4   2 1779.19 180.055   9
  -3  -4   2 1833.18 187.121   5
   3  -4   2 1776.57 157.737   5
   3  -4   3 1294.19 113.406  10
  -3  -4   3 1402.78 134.866   9
   3   4   3 1304.69 67.9663  10
   3  -4   3 1580.01 151.665   4
  -3  -4   3 1421.59 168.670   5
  -3   4   3 1142.71 143.690   9
   3  -4   3 1198.35 133.504   5
   3  -4   3 1088.00 121.288   9
  -3  -4   3 1025.67 144.387   8
   3   4   3 1373.63 156.500   4
  -3   4   3 1269.39 152.218   6
  -3   4   3 1454.05 141.831   5
  -3   4   3 1486.60 113.409  10
   3   4   3 1108.05 146.230   9
  -3   4   4 765.392 105.407   5
   3  -4   4 652.219 100.456   5
  -3  -4   4 549.113 84.4767   9
  -3   4   4 586.537 82.9451  10
   3  -4   4 564.738 82.5578  10
   3   4   4 592.013 61.2954  10
   3  -4   4 514.191 87.4305   9
   3   4   4 387.229 99.2495   9
  -3   4   4 475.691 100.777   9
  -3  -4   4 697.799 124.704   5
   3  -4   4 665.770 101.090   4
  -3   4   4 698.053 113.366   6
  -3  -4   4 383.691 94.4915   8
   3   4   4 666.055 115.267   4
   3   4   5 427.103 64.5229  10
   3  -4   5 227.585 61.5671  10
   3  -4   5 264.247 51.1372   9
  -3   4   5 277.521 72.2038  10
  -3   4   5 236.650 85.4796   9
  -3  -4   5 139.037 68.5159   8
   3   4   5 360.469 102.405   9
  -3  -4   5 440.796 109.154   5
  -3  -4   5 245.593 54.1417   9
   3  -4   5 241.748 57.1964   4
   3   4   5 229.930 76.5050   4
  -3   4   5 290.806 80.2210   6
   3  -4   5 347.150 87.4142   5
   3   4   6 266.529 99.2912   9
  -3   4   6 147.922 84.7906   9
  -3  -4   6 224.722 97.2272   8
  -3  -4   6 286.240 87.3227   5
   3  -4   6 132.247 43.9948   4
   3  -4   6 124.366 65.2062   5
  -3  -4   6 129.863 37.0840   9
   3   4   6 128.434 66.1756   4
  -3   4   6 82.6095 48.1331   6
  -3   4   7 617.560 127.023   9
   3   4   7 639.380 125.399   9
   3  -4   7 575.334 107.180   5
  -3  -4   7 624.613 135.423   8
   3  -4   7 858.962 152.244   8
   3   4   7 629.142 106.446   6
  -3   4   7 634.472 116.989   6
  -3   4   7 573.684 107.966   3
  -3  -4   7 460.638 109.572   5
  -3  -4   8 390.272 111.135   5
  -3   4   8 199.953 73.5855   3
  -3   4   8 341.903 89.8594   9
   3  -4   8 252.696 79.4252   5
  -3  -4   8 359.254 104.881   8
   3  -4   8 346.925 117.303   8
   3   4   8 204.414 93.1255   9
   3  -4   8 371.492 101.257   3
   3   4   8 319.915 84.6788   6
  -3   4   8 187.192 83.1211   6
  -3  -4   9 317.967 106.378   5
  -3  -4   9 454.981 123.351   8
   3  -4   9 353.408 113.608   8
  -3   4   9 272.819 90.0018   3
   3   4   9 502.110 131.139   9
   3   4   9 330.732 81.3733   6
   3   4   9 107.029 63.4254   3
   3  -4   9 349.174 106.318   3
  -3   4   9 219.562 74.5012   6
   3  -4   9 213.368 71.3637   5
  -3   4  10-8.77994 60.3740   3
   3  -4  10 71.6710 73.7886   3
   3   4  10 95.1605 82.1405   9
   3  -4  10 40.3700 93.7842   8
  -3  -4  10 116.252 71.6102   8
  -3   4  10 113.944 62.9918   6
   3  -4  10 141.407 81.3585   5
  -3   5  -9 419.961 105.978   1
   3  -5  -9 274.666 97.4235   2
  -3   5  -8 2285.08 223.853   1
   3  -5  -8 2219.97 221.989   2
   3   5  -8 2473.51 230.921   1
   3  -5  -7 80.3256 62.0401   2
  -3  -5  -7 208.640 103.535   5
  -3   5  -7 165.754 63.4173   6
   3   5  -7 229.536 72.3172   4
   3   5  -7 240.759 68.9157   1
  -3   5  -7 317.128 80.9525   1
   3   5  -6 5679.77 298.098   9
  -3   5  -6 5444.88 307.310   1
  -3  -5  -6 4763.85 361.636   5
   3   5  -6 5111.11 332.928   4
   3   5  -6 5785.05 313.320   1
  -3   5  -6 5146.61 317.639   6
   3  -5  -6 5277.07 347.411   2
  -3  -5  -5 914.894 109.933   2
   3   5  -5 875.332 117.040   9
   3   5  -5 795.906 103.067   1
   3  -5  -5 920.183 134.938   5
  -3  -5  -5 953.602 154.340   5
   3  -5  -5 852.999 141.689   2
  -3   5  -5 760.340 96.9008   7
   3   5  -5 741.212 129.953   4
  -3   5  -5 822.267 102.906   1
  -3   5  -5 792.644 126.599   6
   3  -5  -5 913.265 113.040   8
   3   5  -4 3505.53 243.114   9
  -3   5  -4 3597.47 198.064   1
  -3  -5  -4 3217.89 213.846   2
   3  -5  -4 3170.79 242.813   5
  -3  -5  -4 3269.17 207.749   8
  -3   5  -4 3101.48 208.714   7
   3   5  -4 2919.92 251.232   4
   3  -5  -4 2968.52 247.816   2
  -3   5  -4 3219.26 252.635   6
   3   5  -4 3336.73 187.947   1
  -3  -5  -4 3167.52 273.124   5
  -3  -5  -3 430.009 78.9356   2
  -3  -5  -3 457.859 88.8630   8
  -3   5  -3 451.037 91.4546   9
   3   5  -3 466.077 100.782   9
  -3  -5  -3 403.640 107.532   5
   3   5  -3 466.259 99.9460   4
   3   5  -3 589.798 64.3471   1
  -3   5  -3 766.813 125.424   6
   3  -5  -3 604.984 110.191   5
   3  -5  -3 543.317 110.148   2
  -3  -5  -2 5720.13 301.366   2
  -3  -5  -2 5351.93 349.919   5
   3   5  -2 5309.00 324.719   9
  -3   5  -2 5888.67 331.198   9
   3  -5  -2 4955.08 329.719   2
  -3  -5  -2 5638.01 312.127   8
   3   5  -2 5302.55 343.909   4
  -3   5  -2 5269.82 334.220   6
   3  -5  -2 5717.61 315.674   5
  -3  -5  -1 1600.93 185.573   5
   3   5  -1 1793.75 187.939   9
  -3  -5  -1 1971.64 173.306   2
  -3  -5  -1 1762.96 176.376   8
   3   5  -1 1804.52 195.146   4
  -3   5  -1 1704.21 177.502   9
   3  -5  -1 1859.27 170.591   5
   3  -5  -1 1865.74 190.941   2
  -3   5  -1 1940.66 199.310   6
   3  -5   0 12732.7 512.621   5
   3  -5   0 12410.4 565.826   2
   3   5   0 13274.0 591.057   4
  -3  -5   0 13389.7 561.320   8
   3   5   0 13295.9 580.756   9
  -3   5   0 13199.6 565.245   9
  -3   5   0 14712.0 603.140   6
  -3  -5   0 14026.3 594.088   5
   3   5   1 1718.62 190.938   4
   3  -5   1 1457.55 178.911   2
  -3  -5   1 1890.44 198.127   5
   3  -5   1 1816.55 165.144   5
  -3  -5   1 1607.86 181.918   8
  -3   5   1 1667.46 191.021   6
   3   5   1 1561.64 184.391   9
  -3   5   1 1921.15 197.447   9
  -3   5   2 5799.98 195.609  10
  -3   5   2 5486.16 350.084   9
  -3  -5   2 5425.43 348.009   8
  -3   5   2 5406.40 353.557   6
  -3  -5   2 5200.29 349.002   5
   3  -5   2 5573.32 313.796   5
   3  -5   2 5179.82 347.908   2
   3   5   2 5162.12 347.504   9
   3   5   2 5764.72 362.719   4
  -3  -5   3 596.540 129.594   8
   3  -5   3 704.477 113.633   5
   3   5   3 723.229 131.972   4
  -3   5   3 585.801 125.826   6
  -3   5   3 722.921 67.7742  10
  -3   5   3 619.499 118.429   9
  -3  -5   3 701.412 134.556   5
   3   5   3 601.063 123.266   9
   3   5   4 3321.38 281.431   9
  -3   5   4 3326.91 277.478   9
   3   5   4 3450.70 276.574   4
  -3  -5   4 3074.60 273.649   8
  -3  -5   4 2764.37 268.219   5
  -3   5   4 2953.80 262.710   6
   3  -5   4 3035.87 244.157   5
  -3   5   5 1055.18 160.451   9
  -3  -5   5 1055.80 176.889   5
   3  -5   5 1172.42 157.405   5
  -3  -5   5 1121.62 171.571   8
   3   5   5 1029.65 155.127   4
   3  -5   5 1463.01 195.957   8
  -3   5   5 1109.54 159.842   6
   3   5   5 1103.31 166.992   9
  -3  -5   6 5753.99 403.155   8
   3   5   6 4889.13 341.012   6
   3  -5   6 4964.08 367.130   8
  -3   5   6 4953.08 354.572   6
   3   5   6 5458.32 376.503   9
  -3   5   6 5199.00 367.251   9
   3  -5   6 5315.72 351.861   5
  -3  -5   6 5372.73 396.527   5
   3  -5   7 177.695 85.8706   5
   3   5   7 289.796 102.013   9
  -3   5   7 275.744 113.827   9
  -3  -5   7 324.937 112.046   5
  -3  -5   7 283.552 126.472   8
   3  -5   7 250.931 96.6011   8
  -3   5   7 228.503 82.5563   3
   3   5   7 197.126 80.4826   6
  -3   5   7 502.188 129.570   6
  -3   5   8 2725.70 274.061   9
   3   5   8 2273.67 229.681   6
   3   5   8 2788.72 276.288   9
  -3   5   8 2600.48 254.905   6
  -3   5   8 2040.54 224.732   3
   3  -5   8 2586.01 259.204   5
   3  -5   9 353.593 113.649   5
  -3   5   9 510.926 129.067   6
  -3   5   9 326.655 86.6431   3
   3  -6  -6 2080.33 230.787   2
  -3   6  -6 1933.73 208.956   6
   3   6  -6 2036.45 220.092   4
   3  -6  -5 682.049 125.171   5
  -3  -6  -5 831.786 153.612   5
   3  -6  -5 1008.69 162.070   2
   3   6  -5 871.478 149.782   4
  -3   6  -5 1016.02 156.427   6
  -3  -6  -4 4156.12 339.552   5
   3  -6  -4 4081.76 301.346   5
  -3   6  -4 4583.21 330.109   6
   3  -6  -4 3962.33 322.171   2
   3   6  -4 4389.66 332.219   4
   3   6  -4 4161.87 292.250   9
  -3  -6  -3 488.579 108.383   8
   3  -6  -3 281.131 99.9206   2
   3   6  -3 326.236 96.1188   9
  -3   6  -3 318.192 84.3237   9
  -3  -6  -3 409.747 84.0031   2
   3  -6  -3 244.775 75.3339   8
   3  -6  -3 319.829 101.300   5
   3   6  -3 340.583 99.9767   4
  -3   6  -3 441.654 108.205   6
  -3  -6  -3 444.667 119.912   5
  -3  -6  -2 3976.37 284.470   8
  -3  -6  -2 3928.94 269.461   2
   3   6  -2 3832.65 313.677   4
  -3  -6  -2 4175.84 324.992   5
  -3   6  -2 3735.92 282.888   9
   3  -6  -2 3792.30 276.468   5
   3   6  -2 3818.96 295.327   9
   3  -6  -2 3778.90 282.570   8
  -3   6  -2 4125.20 316.809   6
   3  -6  -2 3933.73 311.099   2
   3  -6  -1 1200.28 165.242   8
   3  -6  -1 1517.26 188.475   2
   3   6  -1 1408.59 188.789   4
  -3  -6  -1 1272.19 177.249   5
   3  -6  -1 1153.72 146.965   5
  -3   6  -1 1355.51 179.912   6
  -3  -6  -1 1309.65 168.407   8
  -3   6  -1 1113.59 161.329   9
  -3  -6  -1 1306.30 155.439   2
   3   6  -1 1420.14 182.374   9
  -3  -6   0 7738.20 445.298   5
   3  -6   0 7426.46 427.539   8
   3   6   0 6603.26 420.815   9
  -3   6   0 7496.63 428.795   9
   3  -6   0 7575.00 442.299   2
  -3  -6   0 7418.32 426.448   8
   3   6   0 7656.20 454.722   4
   3  -6   0 7740.47 395.193   5
  -3  -6   0 6877.59 387.939   2
  -3   6   0 7730.22 456.337   6
   3  -6   1 1090.29 134.727   5
   3  -6   1 1241.52 174.932   2
  -3  -6   1 1237.90 164.719   2
   3   6   1 1051.59 163.630   9
  -3   6   1 1054.18 151.514   9
   3  -6   1 1183.35 173.525   8
  -3  -6   1 1299.31 180.879   5
  -3  -6   1 1364.38 185.924   8
   3   6   1 1261.30 176.536   4
  -3   6   1 1294.41 182.353   6
   3   6   2 4000.22 323.540   9
  -3   6   2 3728.11 301.079   9
   3  -6   2 2973.34 276.092   2
  -3  -6   2 3166.03 287.220   8
   3  -6   2 4083.85 319.968   8
   3   6   2 3069.29 285.838   4
  -3   6   2 3624.48 308.331   6
  -3  -6   2 3673.08 310.953   5
   3  -6   2 3338.68 253.049   5
   3  -6   3 239.366 91.5919   2
   3   6   3 270.301 105.069   4
   3   6   3 267.579 103.242   9
  -3   6   3 492.810 120.818   9
  -3  -6   3 97.8459 66.1794   8
   3  -6   3 313.621 96.8563   8
  -3  -6   3 358.966 107.984   5
   3  -6   3 141.689 72.0923   5
  -3   6   3 287.336 104.652   6
  -3   6   4 4916.72 368.677   6
  -3  -6   4 4690.62 376.403   8
   3  -6   4 4931.76 370.233   8
   3   6   4 4316.92 342.843   4
  -3   6   4 4546.23 355.360   9
   3   6   4 5215.44 379.083   9
  -3  -6   4 4580.57 369.051   5
   3  -6   4 4711.34 332.091   5
  -3  -6   5 1113.27 196.395   5
   3  -6   5 1269.39 181.601   5
   3   6   5 1175.76 178.536   6
   3  -6   6 2276.46 248.248   5
   3  -6   7 374.329 119.707   5
  -3   7  -2 796.523 133.103   9
   3  -7  -1-7.56998 74.8938   8
  -3  -7  -1 61.2641 62.4916   8
  -3  -7   0 2513.90 259.847   8
  -3  -7   1 69.4622 73.0468   2
  -3  -7   2 681.478 138.286   2
  -4   0 -12 106.771 95.3068   1
   4   0 -11 10659.4 613.480   1
  -4   0 -11 9809.99 598.442   1
   4   0 -10 2413.13 162.715   4
   4   0 -10 2641.78 284.927   1
  -4   0 -10 2615.83 276.653   1
   4   0  -9 13769.4 468.953   9
   4   0  -9 13504.1 468.407   4
  -4   0  -9 13283.6 641.499   1
   4   0  -8 1021.34 97.7790   9
  -4   0  -8 764.707 147.154   1
   4   0  -8 991.294 101.251   8
   4   0  -7 42798.6 1135.85   8
   4   0  -7 43820.3 1113.69   9
   4   0  -7 44065.5 1218.72   2
  -4   0  -7 41130.6 1302.24   1
   4   0  -6 5219.17 218.115   9
   4   0  -6 5616.83 259.834   3
   4   0  -6 5389.89 227.113   6
   4   0  -6 5541.14 273.500   2
  -4   0  -6 5136.33 310.633   1
   4   0  -6 5359.02 231.773   8
   4   0  -5 101209. 2327.02   6
   4   0  -5 96458.7 2321.31   8
   4   0  -5 102663. 2356.29   3
   4   0  -5 94465.4 2379.39   2
   4   0  -4 427.790 58.4571   3
   4   0  -4 414.682 62.7448   2
   4   0  -4 568.904 61.7150   8
   4   0  -4 520.803 59.5949   6
  -4   0  -4 493.342 81.5048   1
  -4   0  -3 39204.3 1115.46   1
   4   0  -3 42421.3 1036.42   3
   4   0  -3 41068.7 1045.66   8
   4   0  -3 42850.9 1072.02   2
   4   0  -3 42002.1 1045.11   6
  -4   0  -2 44658.0 1215.98   1
  -4   0  -2 47576.0 1150.51   5
   4   0  -2 48658.4 1178.15   2
   4   0  -2 48280.7 1171.42   8
  -4   0  -2 47922.0 1174.67   7
   4   0  -2 47500.9 1136.90   3
  -4   0  -1 21475.9 528.040   2
  -4   0  -1 18971.8 584.333  10
  -4   0  -1 21344.1 557.499   7
   4   0  -1 21208.4 549.581   2
  -4   0  -1 20765.2 521.794   5
  -4   0  -1 19695.0 583.129   1
   4   0  -1 21176.5 558.654   8
   4   0  -1 20525.9 509.921   3
  -4   0   0 7381.74 283.648  10
  -4   0   0 7662.40 233.686   2
  -4   0   0 7646.72 247.907   7
   4   0   0 8003.09 256.793   8
   4   0   0 8173.25 237.860   2
   4   0   0 7992.13 237.201   5
  -4   0   0 8481.09 237.057   5
  -4   0   1 19336.2 556.314  10
   4   0   1 18863.1 475.853   2
   4   0   1 18724.1 486.371   5
   4   0   1 18448.7 490.611   6
  -4   0   1 18745.3 510.880   6
  -4   0   1 20045.7 492.708   5
   4   0   2 49117.1 1166.38   9
   4   0   2 49104.4 1146.27   4
   4   0   2 46406.6 1155.99   5
   4   0   2 47307.0 1134.82   6
  -4   0   2 47924.3 1173.79   6
  -4   0   2 47924.7 1144.87   3
   4   0   3 42251.4 1078.86   5
   4   0   3 43083.6 1058.01   9
  -4   0   3 42736.5 1065.09   3
   4   0   3 43197.7 1027.05   4
  -4   0   3 43838.9 1084.34   8
   4   0   3 43911.4 1080.29   3
   4   0   3 43814.1 1021.80   6
  -4   0   3 42620.3 1076.50   6
   4   0   4 458.875 62.7311   5
   4   0   4 425.862 31.4226   6
   4   0   4 460.222 48.3255   9
   4   0   4 495.514 36.9821   4
   4   0   4 467.557 60.6938   7
   4   0   4 479.545 61.6313   3
  -4   0   4 491.857 59.6746   3
  -4   0   4 509.307 61.0806   8
  -4   0   5 99493.0 2333.23   8
   4   0   5 99576.9 2361.43   7
   4   0   5 97502.8 2288.12   9
   4   0   5 91238.3 2231.55   4
  -4   0   5 95802.9 2347.88   3
   4   0   5 98292.0 2370.97   5
   4   0   5 96928.0 2363.99   3
   4   0   6 6034.84 221.718   9
  -4   0   6 5646.44 239.759   8
   4   0   6 6030.30 336.394   1
   4   0   6 5654.32 274.064   5
   4   0   6 5560.97 268.703   3
   4   0   6 5651.00 233.906   2
   4   0   6 5648.74 259.972   7
  -4   0   6 5512.34 261.131   3
  -4   0   6 6220.43 287.001   2
   4   0   7 40404.0 1073.14   9
  -4   0   7 43901.7 1117.61   8
   4   0   7 43702.9 1122.51   2
   4   0   7 42376.3 1186.26   3
   4   0   7 44524.1 1163.96   7
  -4   0   7 40557.1 1158.57   3
  -4   0   8 864.749 110.726   3
  -4   0   8 1058.47 100.048   8
   4   0   8 969.929 90.8561   8
   4   0   8 1002.42 77.8671   9
   4   0   8 922.594 118.192   3
   4   0   8 950.213 101.465   2
   4   0   9 15326.4 425.588   9
  -4   0   9 16956.3 528.556   8
   4   0   9 16659.8 493.118   8
   4   0   9 16102.2 553.185   2
   4   0   9 15993.5 615.242   3
  -4   0   9 14986.5 587.475   3
   4   0  10 2654.62 228.756   3
   4   0  10 2514.82 142.230   8
  -4   0  10 2260.30 159.145   8
  -4   0  10 2295.50 205.985   3
   4   0  11 9524.87 490.973   3
  -4   0  11 9956.79 486.709   3
  -4   0  12 305.275 93.2970   3
  -4  -1 -12 276.403 103.772   1
   4  -1 -12 347.609 141.444   1
   4  -1 -11 3036.19 319.230   1
   4   1 -11 3174.93 328.849   1
  -4   1 -11 3356.99 331.233   1
  -4  -1 -11 2896.73 308.837   1
   4   1 -10 1097.82 103.280   4
   4  -1 -10 1369.27 198.302   1
  -4   1 -10 1069.65 186.789   1
  -4  -1 -10 991.587 173.160   1
   4   1 -10 1680.24 227.913   1
   4   1  -9 5459.03 194.588   9
   4  -1  -9 5275.54 295.643   9
   4   1  -9 5741.46 252.806   4
   4  -1  -9 5558.84 261.379   6
   4  -1  -9 5092.80 311.103   2
  -4   1  -9 5891.14 402.373   1
  -4  -1  -9 5879.61 392.503   1
  -4  -1  -8 152.263 74.0540   1
   4   1  -8 191.744 44.9414   4
   4  -1  -8 286.884 53.2510   8
   4  -1  -8 147.505 53.8612   9
   4   1  -8 189.017 35.6289   9
   4  -1  -8 188.092 63.3652   2
  -4  -1  -8 195.011 30.5539   4
   4   1  -8 187.617 32.2299   9
   4  -1  -8 201.183 46.5544   6
  -4   1  -8 186.236 74.4969   1
   4   1  -7 10335.6 329.180   9
   4  -1  -7 11092.4 412.384   9
   4  -1  -7 10517.4 350.655   8
   4   1  -7 11538.7 426.176   8
   4   1  -7 10495.6 328.337   9
  -4  -1  -7 10359.4 318.806   4
   4  -1  -7 10402.3 429.576   2
   4   1  -7 10628.1 372.300   4
  -4  -1  -7 10542.9 492.661   1
  -4   1  -7 10583.0 502.951   1
   4   1  -6 166.335 30.8895   9
  -4   1  -6 173.393 51.7301   3
  -4  -1  -6 175.403 31.8784   4
   4  -1  -6 166.574 54.7989   2
   4   1  -6 181.777 44.5940   8
   4  -1  -6 249.253 42.3666   8
   4   1  -6 127.155 40.2526   4
  -4   1  -6 204.444 77.0863   1
   4   1  -6 151.838 53.3614   3
  -4  -1  -6 221.172 68.3250   1
   4   1  -6 218.682 47.4647   6
  -4  -1  -6 194.797 40.0323   9
   4   1  -5 21829.1 584.990   9
  -4  -1  -5 21003.0 611.535   9
   4  -1  -5 20921.9 587.969   8
  -4  -1  -5 21515.5 576.046   4
   4   1  -5 22267.5 615.098   6
   4   1  -5 22599.2 651.430   8
   4  -1  -5 22042.2 662.829   2
  -4   1  -5 20916.6 519.451   6
   4   1  -5 23068.5 655.657   3
  -4   1  -5 21304.2 729.282   1
  -4  -1  -5 22074.4 716.354   1
   4   1  -5 21988.2 620.335   4
  -4  -1  -4 4342.60 233.475   1
  -4  -1  -4 3758.09 199.413   5
  -4  -1  -4 4309.22 187.842   9
  -4   1  -4 3833.79 181.414   3
   4   1  -4 4036.02 167.726   9
   4  -1  -4 4082.82 191.086   9
  -4  -1  -4 3711.74 160.471   4
   4   1  -4 4100.77 200.383   8
   4   1  -4 3900.57 183.977   4
  -4   1  -4 3785.07 181.170   7
   4  -1  -4 4003.52 169.921   8
   4  -1  -4 3969.19 203.448   2
   4  -1  -4 4298.68 193.684   6
  -4   1  -4 4136.70 138.021   6
   4   1  -4 3994.50 192.144   3
  -4   1  -4 4018.59 236.731   1
   4   1  -3 25115.1 684.664   4
  -4   1  -3 25232.6 750.825   1
   4  -1  -3 24620.7 661.535   8
   4  -1  -3 26174.7 692.652   9
  -4  -1  -3 26044.8 733.612   1
   4   1  -3 24737.8 693.998   8
   4  -1  -3 24553.8 698.656   2
   4   1  -3 25428.8 662.949   9
  -4   1  -3 25019.4 630.611   6
   4  -1  -3 26457.3 691.148   6
  -4   1  -3 24201.4 657.895   3
  -4  -1  -3 24057.2 693.605   5
  -4   1  -3 24903.5 677.264   7
  -4  -1  -3 24676.6 679.657   9
   4   1  -3 25815.7 685.971   3
  -4  -1  -3 24380.0 655.942   4
   4  -1  -2 12545.9 402.215   2
  -4  -1  -2 13376.6 405.979   5
  -4  -1  -2 13694.2 423.132   1
   4   1  -2 13191.7 389.302   9
   4   1  -2 13384.1 402.727   4
  -4  -1  -2 12847.1 383.822   4
  -4   1  -2 12836.6 357.412   3
   4   1  -2 12857.8 403.524   8
  -4   1  -2 12936.2 393.740   7
  -4   1  -2 12773.8 366.242   6
  -4   1  -2 13113.1 436.120   1
   4   1  -2 13371.3 396.531   3
  -4  -1  -1 48256.5 1155.40   5
  -4  -1  -1 45996.6 1149.25  10
  -4   1  -1 46238.7 1137.40   7
  -4   1  -1 45131.6 1175.98  10
   4   1  -1 46810.9 1144.79   4
  -4  -1  -1 46470.1 1121.83   8
  -4   1  -1 43534.4 1160.63   1
   4   1  -1 45808.8 1140.41   8
   4  -1  -1 43926.0 1138.11   2
   4   1  -1 45634.4 1090.94   7
   4   1  -1 46823.7 1138.04   9
  -4   1  -1 45422.5 1118.99   6
  -4   1  -1 46004.8 1068.09   3
  -4  -1  -1 45745.3 1054.10   2
   4   1   0 10947.9 333.637   9
  -4   1   0 10190.9 321.196   6
   4   1   0 10755.0 331.657  10
   4   1   0 10366.3 329.639   4
   4  -1   0 10844.4 332.414   2
  -4   1   0 10796.9 358.838  10
   4   1   0 10342.2 303.783   7
   4   1   0 10746.2 324.387   8
  -4  -1   0 9784.47 282.729   2
   4  -1   0 10591.4 338.154   1
  -4  -1   0 10259.7 336.269  10
  -4  -1   0 9841.70 351.674   5
  -4   1   1 40953.1 943.738   5
   4   1   1 41819.8 1025.64   9
   4   1   1 40790.4 1016.11   4
  -4   1   1 40533.0 1054.00  10
   4   1   1 36320.7 1025.65   1
   4   1   1 40718.7 999.720   8
  -4  -1   1 42359.3 977.636   7
  -4  -1   1 37787.6 1029.38  10
   4   1   1 39673.2 1031.70  10
   4  -1   1 42496.2 1040.41   2
  -4   1   1 40731.2 1019.23   6
  -4  -1   1 40873.3 995.318   2
  -4   1   1 39901.0 936.110   3
   4  -1   1 40979.5 1002.64   6
  -4  -1   1 41085.3 1053.40   5
   4  -1   1 40318.9 950.560   3
  -4   1   2 13685.8 434.512  10
   4   1   2 12786.8 383.226   4
   4   1   2 12800.2 418.050  10
  -4   1   2 13083.6 354.762   5
   4   1   2 12764.5 397.069   9
   4   1   2 12583.3 420.837   1
  -4   1   2 13123.4 400.505   6
  -4  -1   2 13582.3 342.120   7
   4   1   2 13256.9 368.293   8
   4  -1   2 13137.9 367.393   6
  -4  -1   2 12865.3 392.990   2
  -4   1   2 12881.7 345.378   3
   4  -1   2 12554.8 357.752   3
  -4  -1   2 13361.4 412.311   5
  -4  -1   3 24056.3 664.289   3
   4   1   3 23484.5 603.784   8
   4   1   3 24530.1 705.267   1
  -4   1   3 24122.7 659.820   6
   4   1   3 23141.2 634.556   4
   4  -1   3 24438.0 653.651   7
  -4  -1   3 24611.0 580.138   7
   4  -1   3 23202.1 604.351   6
   4   1   3 24447.8 704.937  10
  -4   1   3 23404.5 618.369   3
   4  -1   3 23777.1 631.971   3
   4   1   3 23065.5 649.802   9
   4   1   4 3982.74 129.958   2
   4  -1   4 3962.14 183.632   7
   4   1   4 4140.58 179.184   4
   4   1   4 3909.60 140.277   8
   4  -1   4 3814.48 129.047   4
   4   1   4 3842.28 183.243   9
   4   1   4 4281.45 229.549   1
  -4   1   4 3950.13 185.551   6
  -4   1   4 3736.90 170.952   3
  -4  -1   4 3699.20 188.938   8
   4  -1   4 3872.41 180.282   3
  -4  -1   4 3960.73 194.539   3
   4   1   5 20720.6 532.046   2
   4   1   5 20981.1 607.091   9
   4   1   5 20560.3 516.531   8
   4   1   5 19493.6 579.278   4
  -4   1   5 21869.9 639.877   2
   4   1   5 21552.0 687.761   1
   4  -1   5 21426.7 602.874   7
   4   1   5 20966.6 632.072   3
  -4   1   5 20448.1 598.656   6
  -4  -1   5 19604.7 607.400   8
   4  -1   5 20074.6 606.760   3
  -4   1   5 19727.3 592.853   3
   4  -1   5 19745.6 514.870   9
  -4  -1   5 19506.1 617.152   3
  -4   1   6 235.927 59.3897   2
  -4  -1   6 332.348 67.8776   2
   4   1   6 249.530 39.9468   2
  -4   1   6 311.065 64.9174   3
   4   1   6 235.789 59.3444   5
  -4  -1   6 230.694 62.9814   3
   4  -1   6 269.415 55.0236   7
   4  -1   6 442.774 109.933   1
  -4  -1   6 228.727 57.1672   8
   4   1   6 201.272 24.9031   8
  -4   1   6 272.601 52.5229   6
   4   1   6 203.299 41.5223   4
   4   1   6 340.781 66.6168   3
   4  -1   6 232.542 25.5337   9
   4   1   6 415.036 96.0398   1
   4  -1   6 214.432 54.4365   3
   4   1   6 172.054 47.6533   9
   4   1   7 9795.50 269.872   8
   4   1   7 9798.29 413.317   3
  -4  -1   7 9586.75 381.855   8
   4   1   7 9844.51 390.331   9
  -4   1   7 10129.8 397.907   3
   4   1   7 10318.9 277.600   8
   4   1   7 9838.30 274.036   6
   4  -1   7 10591.0 383.654   7
   4   1   7 10151.5 337.989   2
  -4   1   7 9923.36 363.687   6
   4  -1   7 9859.98 404.595   3
  -4  -1   7 10040.2 416.031   3
  -4   1   8 168.183 55.4385   3
   4   1   8 141.307 55.6785   3
  -4  -1   8 167.506 67.1179   3
  -4  -1   8 223.477 58.3692   8
   4   1   8 327.523 71.2751   9
   4   1   8 193.241 20.1624   8
   4   1   8 126.011 17.3775   8
   4  -1   8 128.718 57.4744   3
   4  -1   8 235.605 58.5030   7
   4   1   8 175.241 44.9417   2
  -4   1   8 175.369 50.5025   6
  -4  -1   9 6442.93 312.627   8
   4  -1   9 7089.47 331.281   8
   4   1   9 7121.49 303.702   9
   4   1   9 6392.81 353.979   3
  -4   1   9 6359.47 339.114   3
   4  -1   9 6597.19 354.015   3
  -4  -1   9 6691.03 359.461   3
   4   1   9 6361.24 285.291   2
  -4  -1  10 985.858 144.157   3
  -4   1  10 1087.87 143.151   3
   4  -1  10 1061.30 147.389   3
  -4  -1  10 1123.57 129.566   8
   4  -1  10 1063.70 122.944   8
   4   1  10 1118.77 104.058   9
   4   1  10 1141.79 153.068   3
  -4  -1  11 3561.30 229.506   8
   4   1  11 2886.59 257.227   3
  -4   1  11 2946.88 248.008   3
   4  -1  11 2532.15 236.465   3
  -4  -1  11 2855.56 251.824   3
  -4   1  12 485.996 116.942   3
  -4  -2 -12 147.371 93.6823   1
   4  -2 -12 121.177 102.127   1
   4   2 -11 518.401 148.881   1
   4  -2 -11 606.046 118.830   2
  -4   2 -11 602.170 148.171   1
  -4  -2 -11 297.439 99.5042   1
   4  -2 -11 384.133 121.018   1
  -4   2 -10 55.0515 69.4493   1
  -4  -2 -10-57.2499 79.7374   1
   4  -2 -10 32.9715 75.3636   1
   4   2 -10 87.8061 82.3835   1
   4  -2 -10-32.2259 58.9082   2
   4  -2  -9 431.636 91.8225   2
   4   2  -9 395.046 130.030   1
   4   2  -9 265.872 57.1737   4
  -4  -2  -9 164.971 70.7066   1
  -4   2  -9 455.184 119.639   1
  -4   2  -8 406.685 101.496   1
   4  -2  -8 439.905 84.0489   2
   4   2  -8 403.283 41.5488   9
  -4  -2  -8 511.884 80.1804   9
   4   2  -8 333.090 61.7886   4
   4  -2  -8 371.091 46.2094   8
  -4  -2  -8 459.470 106.482   1
   4   2  -8 399.255 64.8493   6
   4   2  -7 867.899 69.2817   9
   4  -2  -7 816.448 109.492   2
   4   2  -7 949.212 96.8534   4
   4   2  -7 889.158 90.5050   6
  -4   2  -7 803.790 132.581   1
  -4   2  -7 785.205 52.2827   6
   4  -2  -7 981.971 74.1144   8
  -4  -2  -7 1115.21 141.998   1
  -4  -2  -7 853.954 102.911   9
  -4  -2  -6 1236.37 121.894   9
  -4  -2  -6 1487.02 146.488   5
  -4   2  -6 1485.87 84.5362   6
   4   2  -6 1480.45 118.042   4
   4  -2  -6 1219.40 86.8764   8
   4  -2  -6 1540.60 147.433   9
   4  -2  -6 1210.92 126.080   2
   4  -2  -6 1438.55 128.072   6
  -4   2  -6 1334.18 124.273   3
   4   2  -6 1456.25 94.9364   9
  -4   2  -6 1386.51 157.855   1
  -4  -2  -6 1491.20 148.340   1
  -4   2  -5 662.869 75.8065   7
   4   2  -5 683.038 66.4907   9
   4   2  -5 670.656 91.1902   3
  -4  -2  -5 678.579 86.9330   9
   4  -2  -5 826.378 102.534   9
  -4  -2  -5 498.404 80.4323   5
  -4  -2  -5 602.105 89.8893   1
  -4   2  -5 651.004 80.7254   3
   4   2  -5 725.708 95.4905   8
   4   2  -5 641.654 76.2118   4
   4  -2  -5 494.728 80.0825   2
   4  -2  -5 787.651 91.3973   6
  -4   2  -5 605.821 58.8813   6
  -4   2  -5 661.672 104.118   1
   4  -2  -5 648.291 64.2743   8
  -4  -2  -4 784.746 94.1925   1
  -4  -2  -4 748.285 95.4686   5
   4   2  -4 799.118 73.7078   9
  -4   2  -4 783.093 106.304   1
   4  -2  -4 695.207 90.3047   2
   4   2  -4 825.037 88.2814   4
   4   2  -4 891.272 99.4089   8
   4  -2  -4 963.874 105.409   9
  -4   2  -4 766.359 77.6495   7
  -4  -2  -4 848.386 92.9285   9
  -4   2  -4 745.739 68.8673   6
  -4  -2  -4 722.466 44.9619   2
   4  -2  -4 769.446 88.3891   6
  -4  -2  -3 1309.70 82.1047   8
   4   2  -3 1296.57 96.9397   9
   4  -2  -3 1405.65 117.369   2
  -4   2  -3 1731.58 137.354   1
   4   2  -3 1391.94 110.501   4
  -4  -2  -3 1412.61 112.024   4
  -4  -2  -3 1222.00 103.070   1
   4   2  -3 1346.79 116.082   8
  -4   2  -3 1433.86 99.2433   6
  -4  -2  -3 1249.10 56.7472   2
  -4   2  -3 1289.07 99.9230   7
  -4  -2  -3 1237.17 116.037   5
  -4   2  -3 1317.13 94.3053   3
  -4  -2  -2 3440.63 117.667   2
  -4  -2  -2 3267.33 175.213   4
   4   2  -2 3344.52 166.575   9
   4  -2  -2 3294.18 140.686   5
   4   2  -2 3229.02 173.235   4
  -4  -2  -2 3463.86 158.508   1
  -4   2  -2 3392.94 146.846   3
  -4  -2  -2 3210.70 148.579   8
  -4   2  -2 3521.48 186.311   1
   4   2  -2 3399.38 183.325   8
   4  -2  -2 3343.42 182.679   2
   4   2  -2 3095.55 114.087   7
  -4  -2  -2 3333.08 192.670   5
  -4   2  -2 3407.79 167.590   6
   4  -2  -1 9423.88 354.523   2
   4   2  -1 9868.38 345.674   8
  -4  -2  -1 9280.29 318.321   8
   4  -2  -1 10081.8 283.924   5
   4   2  -1 9558.31 345.762   4
   4   2  -1 9479.17 337.909   9
   4   2  -1 9386.30 288.052   7
  -4   2  -1 10872.1 360.096  10
  -4   2  -1 9781.11 340.908   6
  -4   2  -1 10036.1 339.263   1
  -4   2  -1 9768.79 291.080   3
  -4  -2  -1 9587.35 374.008   5
   4   2   0 18006.2 538.755   9
   4  -2   0 19015.6 545.252  10
   4   2   0 18395.7 544.970   4
   4  -2   0 18287.0 565.937   2
  -4   2   0 18389.7 536.301  10
  -4  -2   0 16966.0 519.664   8
   4  -2   0 17516.8 508.581   1
   4   2   0 17704.7 523.296   8
  -4   2   0 17850.8 535.260   6
  -4   2   0 16013.5 469.947   3
  -4  -2   0 18044.6 488.699  10
  -4   2   0 18442.4 466.307   5
  -4  -2   0 18717.9 597.222   5
   4  -2   0 17501.7 463.796   5
   4  -2   1 10060.0 355.384  10
   4  -2   1 9264.89 373.512   2
   4   2   1 9404.02 315.636   1
   4   2   1 9521.31 347.398   9
   4  -2   1 10044.6 338.188   1
   4  -2   1 10015.4 332.477   9
   4   2   1 9344.46 344.219   4
   4   2   1 9638.07 322.229   8
  -4  -2   1 9638.97 338.265   9
   4   2   1 9584.50 303.733  10
  -4   2   1 10177.3 348.329  10
  -4   2   1 9333.90 344.432   6
   4  -2   1 9661.21 296.054   5
   4  -2   1 9907.17 337.459   4
  -4  -2   1 9440.40 388.093   5
  -4   2   1 10001.6 296.754   5
  -4  -2   1 10150.0 318.467  10
  -4   2   2 3311.93 141.409   5
   4  -2   2 3271.82 182.457  10
  -4  -2   2 3426.46 178.569   4
   4   2   2 3450.67 162.152  10
   4   2   2 3373.95 182.095   4
  -4  -2   2 3204.00 164.694   9
   4   2   2 3226.73 150.748   8
   4  -2   2 3527.31 166.883   4
   4  -2   2 3424.37 150.388   3
  -4   2   2 3282.28 179.423   6
   4  -2   2 3500.94 185.401   1
  -4   2   2 3306.78 179.969  10
   4  -2   2 3347.65 158.784   9
   4  -2   2 3218.57 141.536   5
  -4  -2   2 3273.28 198.263   5
   4   2   2 3494.07 167.611   1
   4   2   2 3618.38 188.338   9
   4  -2   3 1453.04 127.356  10
   4   2   3 1569.63 117.530  10
  -4  -2   3 1362.01 109.441   4
   4  -2   3 1435.09 104.117   4
  -4   2   3 1413.06 126.093  10
   4  -2   3 1361.51 92.8289   9
   4   2   3 1428.04 86.1137   8
   4   2   3 1459.01 118.523   4
  -4   2   3 1235.35 89.9950   5
  -4  -2   3 1323.72 97.6176   9
   4   2   3 1350.98 117.574   9
  -4   2   3 1251.82 110.482   6
   4   2   3 1398.59 109.206   1
   4  -2   3 1491.91 128.886   1
  -4  -2   3 1341.55 122.270   5
   4  -2   3 1359.86 98.6772   3
  -4   2   4 729.713 78.0644   5
   4  -2   4 655.259 60.1663   9
  -4  -2   4 782.497 93.2755   3
   4  -2   4 771.791 82.8282   3
   4   2   4 830.753 57.8370   8
   4   2   4 941.622 105.300   9
  -4  -2   4 690.203 77.6906   4
   4  -2   4 830.072 74.4131   4
  -4  -2   4 687.114 88.5656   2
   4  -2   4 722.035 96.7446  10
   4   2   4 814.125 98.0608   4
  -4   2   4 771.686 89.1357   6
  -4   2   4 754.741 74.9147   3
  -4   2   4 780.083 91.7125   2
  -4  -2   4 802.632 98.5846   5
   4   2   4 800.755 93.4716   1
  -4  -2   5 835.936 103.822   2
  -4   2   5 744.515 88.5474   6
   4  -2   5 714.079 100.790  10
   4   2   5 719.240 52.4211   2
  -4   2   5 791.843 99.2352   2
   4  -2   5 748.730 58.9666   9
  -4  -2   5 884.156 107.771   3
   4   2   5 777.054 46.2723   8
   4   2   5 745.807 97.8616   5
   4   2   5 985.607 113.621   1
   4  -2   5 776.615 90.9977   3
   4   2   5 753.207 93.1120   4
   4   2   5 789.030 100.542   9
  -4  -2   5 751.358 99.3095   8
   4  -2   5 760.598 112.639   1
  -4   2   5 814.402 88.5704   3
   4  -2   5 730.379 62.7509   4
  -4   2   6 1468.66 130.529   5
   4  -2   6 1452.88 71.7174   9
   4   2   6 1471.59 87.2907   2
   4  -2   6 1453.69 130.954   3
  -4  -2   6 1624.22 145.756   8
   4  -2   6 1383.68 67.0069   4
   4  -2   6 1276.50 62.5687   9
  -4   2   6 1401.11 122.648   6
   4   2   6 1352.57 126.379   4
  -4   2   6 1334.70 120.855   3
  -4  -2   6 1514.86 143.486   3
   4   2   6 1514.67 148.374   9
   4   2   7 1022.31 81.2117   2
  -4   2   7 793.450 104.512   3
   4  -2   7 915.170 117.293   3
  -4  -2   7 1044.70 131.089   3
   4   2   7 1046.59 132.739   9
  -4  -2   7 845.149 116.648   8
   4   2   7 1132.30 98.1972   6
  -4   2   7 886.119 99.7824   6
   4   2   7 896.640 119.464   3
   4   2   8 384.164 59.3233   2
   4  -2   8 409.409 93.2532   3
  -4  -2   8 421.132 90.2075   3
   4   2   8 413.518 90.4408   9
  -4  -2   8 310.921 71.7963   8
   4  -2   8 228.128 52.5404   7
   4   2   8 258.816 70.4672   3
   4   2   8 334.017 52.6051   6
  -4   2   8 438.711 80.3510   6
  -4   2   8 225.058 63.2423   3
   4   2   9 256.644 73.9636   3
   4  -2   9 331.590 84.4943   3
   4   2   9 285.947 79.3643   9
  -4   2   9 333.318 82.0697   3
  -4  -2   9 271.541 86.8742   3
  -4  -2   9 341.038 85.1423   8
   4   2   9 328.157 44.5095   6
  -4   2   9 276.765 66.0587   6
   4  -2   9 268.660 80.1974   8
   4   2  10 166.458 75.2856   3
   4   2  10-0.50691 40.6060   9
  -4  -2  10 27.0157 49.0229   3
  -4   2  10 60.3994 66.0540   3
   4  -2  10 93.2037 71.8690   3
   4  -2  10 9.54488 58.4743   8
  -4   2  10 99.6330 49.6681   6
  -4  -2  10-95.9799 60.9379   8
  -4   2  11 535.081 120.304   3
   4  -2  11 505.053 112.249   8
   4  -2  11 739.816 137.318   3
  -4  -2  11 418.388 109.013   3
  -4  -2  11 495.152 103.253   8
   4   2  11 591.547 125.224   3
  -4   2  12 151.466 78.5062   3
   4  -3 -11 1783.06 200.486   2
  -4  -3 -11 1767.61 223.687   1
   4  -3 -11 2116.12 252.262   1
   4   3 -11 1767.80 237.002   1
   4  -3 -10 174.022 80.9525   2
  -4   3 -10 343.832 121.370   1
   4  -3 -10 116.328 62.0387   1
   4   3 -10 236.526 87.8276   1
  -4  -3 -10 359.812 106.909   1
   4   3  -9 3554.95 214.631   4
   4  -3  -9 3342.06 279.557   1
   4   3  -9 3044.66 277.397   1
   4  -3  -9 3415.64 257.482   2
  -4  -3  -9 3187.28 262.129   1
  -4   3  -9 3224.96 288.526   1
   4  -3  -8 283.301 78.4286   2
  -4   3  -8 119.986 81.1483   1
  -4  -3  -8 352.583 92.3028   1
   4   3  -8 191.944 51.6755   4
   4   3  -8 299.463 101.390   1
  -4   3  -8 297.831 46.7494   6
  -4  -3  -7 5562.20 312.410   1
   4   3  -7 5829.03 288.300   4
  -4  -3  -7 5544.36 342.737   5
  -4  -3  -7 5625.44 226.930   2
   4  -3  -7 6059.43 218.808   8
   4   3  -7 5979.98 241.202   9
   4  -3  -7 5310.18 309.822   2
  -4   3  -7 6431.85 256.256   6
  -4   3  -7 5616.41 346.689   1
   4  -3  -6 386.028 82.6323   2
  -4  -3  -6 377.000 46.9760   2
  -4  -3  -6 368.527 91.5408   5
  -4  -3  -6 433.421 76.6825   1
   4   3  -6 423.400 59.9468   9
   4  -3  -6 471.073 56.7922   8
  -4   3  -6 365.120 62.9288   7
  -4   3  -6 430.596 66.8307   6
   4   3  -6 392.065 67.1553   4
  -4   3  -6 305.287 84.7979   1
   4   3  -5 3024.20 193.493   4
  -4  -3  -5 2744.35 198.266   4
   4   3  -5 2741.18 163.137   9
  -4  -3  -5 2619.99 172.899   1
  -4  -3  -5 2718.68 212.943   5
   4  -3  -5 2590.79 192.398   2
  -4   3  -5 2928.07 170.662   7
  -4  -3  -5 2645.56 125.608   2
  -4   3  -5 2757.85 171.133   6
  -4   3  -5 2991.49 192.415   3
  -4   3  -5 2747.12 206.685   1
  -4   3  -4 3127.91 206.859   1
  -4  -3  -4 3133.07 172.127   1
   4   3  -4 3091.98 198.522   4
  -4  -3  -4 3150.29 148.456   8
  -4  -3  -4 3517.03 234.234   5
   4   3  -4 3350.55 184.922   9
  -4  -3  -4 3553.70 225.430   4
   4  -3  -4 3204.99 213.369   2
  -4   3  -4 3059.28 179.537   7
  -4   3  -4 3119.97 189.439   6
  -4  -3  -4 3207.58 140.012   2
  -4   3  -4 3690.31 199.748   3
  -4  -3  -3 10401.2 419.072   9
  -4  -3  -3 9785.93 331.138   8
  -4   3  -3 9825.76 373.724   1
   4   3  -3 9331.54 361.208   9
   4  -3  -3 9920.13 420.475   9
   4  -3  -3 10502.2 418.472   4
  -4  -3  -3 9676.00 319.181   1
  -4  -3  -3 9355.62 399.735   4
   4  -3  -3 9281.31 395.572   2
   4   3  -3 9228.30 382.699   4
  -4  -3  -3 9777.49 420.141   5
  -4   3  -3 9766.18 362.272   7
   4  -3  -3 9645.51 348.579   5
   4   3  -3 9176.89 255.062   7
  -4   3  -3 8981.10 368.755   6
  -4  -3  -3 9936.63 305.273   2
   4   3  -3 9536.22 411.672   3
  -4   3  -2 1661.53 139.168   6
   4   3  -2 1736.92 136.875   9
  -4  -3  -2 1543.04 105.510   2
  -4  -3  -2 1785.31 150.761   4
   4   3  -2 1567.80 135.511   4
  -4  -3  -2 1551.27 151.774   5
  -4   3  -2 1675.36 121.231   1
   4  -3  -2 1675.68 145.145   2
   4  -3  -2 1614.87 114.761   5
  -4  -3  -2 1833.19 125.899   8
  -4   3  -2 1734.02 120.599   3
  -4   3  -1 1120.20 111.172   9
   4  -3  -1 1274.70 129.215   9
   4   3  -1 1107.67 116.956   4
   4  -3  -1 1037.45 78.5852   1
   4  -3  -1 935.483 83.4078   5
  -4   3  -1 1172.39 118.358   6
   4  -3  -1 829.249 103.052   2
  -4  -3  -1 1117.46 127.466   5
   4   3  -1 866.881 98.2217   9
  -4   3  -1 1280.22 99.0681   3
  -4  -3   0 492.545 88.0913   5
  -4  -3   0 469.579 76.4542   9
  -4   3   0 553.566 68.0708  10
   4  -3   0 465.347 60.8021   5
   4  -3   0 591.205 62.4704   1
   4  -3   0 560.010 85.8740   9
  -4   3   0 611.440 87.4987   9
   4   3   0 555.172 54.5184   1
   4   3   0 440.312 77.0894   4
   4  -3   0 472.477 81.9546   4
  -4   3   0 579.460 85.1187   6
   4   3   0 515.546 84.9012   9
   4  -3   0 659.096 79.6078  10
  -4   3   0 517.396 59.6914   5
   4  -3   0 520.095 88.8512   2
  -4  -3   1 660.835 93.9615   8
  -4  -3   1 944.261 126.499   5
   4  -3   1 873.795 100.992   9
  -4   3   1 668.017 74.9081  10
  -4  -3   1 756.057 57.7768  10
   4   3   1 801.892 100.633   9
   4  -3   1 888.507 90.2650  10
  -4  -3   1 776.847 95.0710   9
   4   3   1 643.662 93.1591   4
   4  -3   1 662.480 91.2841   4
  -4   3   1 728.500 97.4632   9
   4  -3   1 703.315 101.997   2
  -4   3   1 599.399 90.2256   6
   4   3   1 850.853 65.0464   1
   4  -3   1 660.703 70.8264   1
  -4   3   1 874.373 83.4382   5
   4  -3   1 745.995 79.5877   5
  -4  -3   2 1576.49 129.832   9
   4  -3   2 1473.74 122.360  10
   4   3   2 1949.99 162.283   9
  -4   3   2 1866.55 160.289   9
   4  -3   2 1921.64 141.181   9
  -4  -3   2 1772.51 146.118   4
   4   3   2 1665.77 151.709   4
   4  -3   2 1715.07 141.891   4
  -4  -3   2 1763.67 109.762  10
   4   3   2 1647.08 93.1687  10
  -4  -3   2 1692.02 152.730   8
   4  -3   2 1719.29 123.585   1
  -4   3   2 1719.81 152.132   6
   4   3   2 1863.84 104.620   1
  -4   3   2 1637.25 125.990  10
   4  -3   2 1664.51 121.485   5
  -4  -3   2 1430.12 153.846   5
  -4   3   2 1578.55 116.468   5
  -4   3   3 9320.90 357.927  10
   4  -3   3 9516.07 368.953  10
  -4   3   3 10098.6 399.063   2
   4  -3   3 8755.16 348.562   9
  -4  -3   3 8928.82 398.261   8
  -4   3   3 8851.28 397.529   9
  -4  -3   3 9948.43 388.349   4
   4  -3   3 9230.02 370.971   4
   4   3   3 8977.45 399.253   4
   4   3   3 9046.19 400.223   9
   4   3   3 9636.89 323.473  10
   4   3   3 9497.29 321.527   1
  -4  -3   3 9657.53 363.673   9
  -4   3   3 9327.23 395.630   6
   4  -3   3 9693.55 351.026   5
  -4  -3   3 9029.88 414.769   5
   4   3   3 9858.57 416.411   5
  -4   3   3 9159.17 339.201   5
  -4   3   4 3240.00 201.794  10
   4  -3   4 3355.45 209.887  10
   4   3   4 3443.56 188.546  10
  -4  -3   4 3046.51 178.302   9
  -4  -3   4 3362.10 204.948   4
   4  -3   4 3206.81 192.604   3
   4  -3   4 3116.97 177.936   9
  -4   3   4 3145.81 220.805   9
  -4  -3   4 3154.78 226.438   8
   4   3   4 3116.25 223.216   9
   4   3   4 3350.16 227.334   4
   4  -3   4 3560.48 199.641   4
   4   3   4 3482.03 183.706   1
   4  -3   4 3246.01 210.404   1
  -4   3   4 3185.86 212.795   6
  -4   3   4 3564.89 220.433   2
   4  -3   4 3223.49 187.758   5
  -4  -3   4 3260.46 231.851   5
   4  -3   5 2408.70 174.925   3
   4  -3   5 2419.53 145.398   9
   4  -3   5 2435.24 156.062   4
   4   3   5 2464.78 205.328   9
  -4  -3   5 2578.49 178.560   4
  -4  -3   5 2536.86 204.892   8
  -4   3   5 2342.26 193.562   9
   4   3   5 2682.24 205.001   4
   4  -3   5 2402.18 186.718  10
  -4   3   5 2429.92 168.868   5
  -4   3   5 2411.03 184.686   6
  -4   3   5 2437.30 167.730   3
  -4  -3   5 2742.13 216.066   5
   4  -3   6 462.219 55.6484   9
   4   3   6 485.567 102.129   9
  -4   3   6 446.065 88.3012   6
   4  -3   6 378.408 80.3528   3
  -4  -3   6 389.128 92.4452   5
  -4  -3   6 463.433 97.2326   8
  -4  -3   6 446.820 72.1825   4
  -4   3   6 363.670 70.2337   3
   4  -3   6 359.943 54.0280   4
   4   3   6 375.116 87.0289   4
   4   3   7 5490.62 334.997   9
  -4  -3   7 5587.87 333.306   3
   4   3   7 6013.12 227.870   2
   4  -3   7 5643.58 206.745   4
  -4  -3   7 5812.97 335.327   8
   4   3   7 5707.03 313.260   4
   4  -3   7 4700.15 153.079   9
   4   3   7 5236.53 283.383   6
  -4   3   7 5666.48 299.838   6
  -4   3   7 5532.84 292.266   3
  -4  -3   7 5908.39 346.041   5
   4  -3   7 5485.08 304.097   3
  -4  -3   8 330.966 95.6347   8
   4   3   8 434.375 99.6367   3
  -4   3   8 224.606 65.2352   3
   4  -3   8 349.848 86.3031   3
  -4  -3   8 384.759 106.458   3
   4   3   8 262.981 87.8922   9
   4   3   8 303.294 65.0261   6
  -4   3   8 294.133 76.2862   6
  -4  -3   8 303.807 89.2033   5
   4  -3   9 3223.86 275.766   8
  -4  -3   9 3038.69 253.121   8
   4   3   9 3218.79 263.781   3
  -4   3   9 3206.28 227.510   6
   4   3   9 2991.33 193.887   6
  -4   3   9 3151.10 242.987   3
  -4  -3   9 3463.62 279.812   3
   4   3   9 2940.71 251.910   9
   4  -3   9 3052.35 246.327   3
   4  -3  10 199.156 79.5994   3
  -4   3  10 294.646 90.2877   3
  -4  -3  10 427.697 124.691   3
   4   3  10 132.465 75.2900   9
  -4  -3  10 381.790 103.397   8
   4  -3  10 241.721 91.4545   8
   4   3  10 277.773 89.2607   3
  -4   3  10 281.919 76.2918   6
   4  -3  11 2361.10 244.316   8
  -4  -3  11 2534.50 247.740   8
  -4   3  11 2295.79 230.085   3
  -4   4 -10 96.0380 84.6302   1
   4  -4 -10 12.1107 74.6127   2
   4   4 -10-52.0999 76.9787   1
  -4   4  -9 6517.30 416.211   1
   4  -4  -9 6133.73 366.012   1
   4   4  -9 5759.82 393.977   1
   4  -4  -9 6583.97 387.923   2
   4  -4  -8 666.944 120.781   2
  -4  -4  -8 546.884 92.1660   1
  -4   4  -8 751.811 128.996   1
   4   4  -8 723.046 110.372   4
   4  -4  -8 696.809 113.865   1
   4   4  -8 879.145 147.222   1
   4   4  -7 17748.6 659.377   4
   4   4  -7 18322.0 592.714   9
   4   4  -7 19075.7 706.886   1
  -4  -4  -7 17975.5 752.727   5
  -4   4  -7 18770.4 598.468   7
  -4  -4  -7 18030.1 622.301   1
   4  -4  -7 18890.6 655.746   1
   4  -4  -7 18286.5 700.791   2
  -4   4  -7 18076.9 622.450   6
  -4   4  -7 17879.8 704.381   1
   4  -4  -6 448.574 102.739   2
  -4  -4  -6 487.332 107.622   5
  -4  -4  -6 630.131 70.2330   2
  -4   4  -6 469.292 72.3277   7
   4   4  -6 484.754 93.2911   4
  -4  -4  -6 634.623 86.4102   1
  -4   4  -6 390.517 71.5854   6
   4   4  -6 658.580 112.257   1
   4   4  -6 525.181 79.3237   9
  -4   4  -6 685.014 108.039   1
  -4  -4  -5 10338.2 360.053   1
  -4  -4  -5 9390.56 487.338   5
   4   4  -5 9809.07 409.593   9
  -4   4  -5 9844.80 428.469   1
  -4  -4  -5 10689.6 345.333   8
  -4   4  -5 9207.41 417.885   6
   4  -4  -5 10422.5 470.054   2
  -4   4  -5 10476.2 401.742   7
  -4  -4  -5 10590.3 356.498   2
   4   4  -5 10558.2 432.791   1
   4   4  -5 9982.98 447.284   4
  -4  -4  -4 382.972 59.6399   2
  -4  -4  -4 558.425 108.398   5
   4  -4  -4 195.694 60.9278   5
  -4   4  -4 233.671 62.1807   1
   4  -4  -4 386.129 85.6845   2
   4   4  -4 357.238 74.0644   9
  -4   4  -4 303.494 65.5234   7
   4   4  -4 304.193 82.5670   4
  -4   4  -4 372.051 75.8040   6
  -4  -4  -3 15762.8 638.629   5
   4  -4  -3 16269.3 558.057   5
   4  -4  -3 16308.6 618.887   2
  -4   4  -3 16517.0 527.497   1
   4   4  -3 16280.1 611.366   4
   4   4  -3 15662.0 577.097   9
  -4   4  -3 15460.1 588.137   6
  -4   4  -3 16408.1 563.277   3
  -4  -4  -3 16099.9 512.497   2
  -4  -4  -2 565.967 104.844   5
   4  -4  -2 603.153 85.1616   5
   4  -4  -2 520.797 51.4076   1
  -4   4  -2 531.818 89.2025   9
  -4   4  -2 519.347 82.4881   3
  -4  -4  -2 643.550 92.3997   8
   4   4  -2 524.508 96.1948   4
   4   4  -2 508.255 91.6403   9
  -4   4  -2 486.110 91.1080   6
  -4  -4  -2 617.678 82.0286   2
   4  -4  -2 606.801 104.163   2
   4  -4  -1 17195.2 576.248   5
   4  -4  -1 16210.2 645.730   2
   4   4  -1 17891.1 659.397   4
  -4   4  -1 17560.7 631.335   9
   4   4  -1 16821.0 630.476   9
  -4  -4  -1 18084.8 616.851   8
  -4   4  -1 16925.5 641.027   6
   4   4  -1 19139.2 493.623   1
   4  -4  -1 18311.3 488.822   1
  -4   4  -1 17948.3 589.965   3
  -4  -4  -1 18269.5 681.360   5
  -4   4   0 229.663 81.7492   9
   4  -4   0 125.307 49.5866   5
   4  -4   0 29.6372 21.3346   1
  -4   4   0 23.5511 27.8068  10
  -4  -4   0 89.3367 50.7938   5
  -4   4   0 146.389 64.4202   3
   4   4   0 54.7972 58.1517   9
  -4  -4   0 201.814 75.2267   8
   4   4   0-40.7195 49.9452   4
  -4   4   0 89.0826 101.778   6
   4   4   0 66.6752 18.0492   1
   4  -4   0 332.272 100.233   2
  -4   4   1 17842.7 528.229  10
   4   4   1 16554.7 639.957   9
  -4   4   1 16694.7 633.973   9
  -4  -4   1 16846.3 632.978   8
   4   4   1 16160.9 642.976   4
   4  -4   1 18035.8 538.102  10
   4  -4   1 17580.3 506.358   1
   4  -4   1 17756.5 668.497   2
  -4   4   1 16082.6 635.443   6
  -4  -4   1 19667.1 702.963   5
   4  -4   1 18603.1 582.096   5
  -4  -4   2 463.078 108.522   5
   4  -4   2 448.635 85.6084   9
  -4   4   2 379.641 68.8927   5
   4  -4   2 605.227 89.1429   5
  -4   4   2 391.195 93.2062   9
  -4   4   2 551.352 106.081   6
  -4  -4   2 521.709 43.7796  10
  -4  -4   2 635.443 116.565   8
  -4   4   2 445.378 62.6542  10
   4  -4   2 525.341 77.7285  10
   4   4   2 400.081 91.6323   9
   4   4   2 445.636 93.6357   4
   4  -4   2 646.852 78.0866   1
   4   4   3 15721.2 422.612  10
  -4  -4   3 16276.8 577.250   9
   4   4   3 14877.4 616.547   9
   4  -4   3 16352.9 568.502   9
  -4   4   3 15353.4 615.370   9
   4  -4   3 17284.7 594.971   4
  -4  -4   3 16465.7 470.585  10
   4  -4   3 15164.0 525.107  10
   4   4   3 15191.7 614.204   4
  -4   4   3 15162.7 610.728   6
  -4   4   3 16019.4 516.726  10
   4  -4   3 14247.9 542.676   5
  -4  -4   3 15262.1 641.130   5
  -4   4   3 15358.8 552.221   5
  -4  -4   3 14808.4 612.287   8
   4   4   4 354.759 53.4546  10
   4   4   4 421.393 100.768   9
  -4  -4   4 348.149 94.1815   5
   4  -4   4 329.980 79.0112   5
  -4  -4   4 261.614 62.3186   9
  -4  -4   4 612.307 123.044   8
   4  -4   4 334.841 69.6662  10
   4  -4   4 359.925 76.1267   4
   4   4   4 275.947 82.6796   4
  -4   4   4 324.973 63.6738  10
   4  -4   4 335.973 66.6053   9
  -4   4   4 331.855 87.4729   6
  -4   4   4 389.817 78.3092   5
  -4   4   4 301.195 90.5685   9
   4   4   5 9357.06 358.646  10
  -4   4   5 9589.01 403.153  10
  -4  -4   5 9655.23 390.061   9
   4   4   5 8901.87 468.258   9
  -4   4   5 8547.05 452.042   9
   4  -4   5 10448.4 416.424   4
  -4  -4   5 9460.82 479.148   8
   4   4   5 10255.7 477.721   4
   4  -4   5 9175.62 408.482  10
  -4   4   5 9599.19 457.390   6
   4  -4   5 10125.6 388.304   9
   4  -4   5 9558.45 423.523   5
  -4  -4   5 9271.82 482.336   5
  -4   4   6 588.631 98.4931   3
   4  -4   6 519.316 96.7925   5
  -4  -4   6 401.780 105.949   5
  -4   4   6 539.166 111.832   9
  -4  -4   6 719.305 137.563   8
  -4   4   6 622.607 105.284  10
   4   4   6 545.473 112.594   4
  -4   4   6 642.649 118.522   6
   4   4   6 537.590 110.986   9
   4   4   7 19301.2 770.351   9
   4  -4   7 19000.8 705.854   5
   4   4   7 19164.5 715.161   6
  -4   4   7 19471.7 730.060   6
  -4   4   7 18956.2 695.279   3
  -4  -4   7 19102.6 779.952   8
  -4  -4   7 20909.4 808.617   5
  -4  -4   8 652.053 142.536   5
   4  -4   8 860.216 137.100   5
   4  -4   8 898.360 145.380   3
   4   4   8 788.209 149.450   9
  -4   4   8 862.985 132.076   3
  -4  -4   8 757.026 147.099   8
   4  -4   8 955.103 166.677   8
   4   4   8 748.454 117.485   6
  -4   4   8 787.961 128.861   6
   4  -4   9 6619.04 430.093   8
   4  -4   9 6450.90 390.954   3
   4   4   9 6683.51 419.477   9
   4   4   9 5967.81 341.250   6
   4   4   9 6573.47 422.292   3
  -4   4   9 6857.98 383.936   6
  -4  -4   9 6475.09 423.138   8
  -4   4   9 6443.63 381.555   3
   4  -4   9 5785.10 368.724   5
  -4  -4   9 5514.89 406.596   5
   4  -4  10 123.256 83.9066   3
   4   4  10 118.088 82.4162   9
  -4  -4  10 148.595 102.658   8
   4  -4  10-44.0750 82.8193   8
  -4   4  10 16.9340 46.3595   6
  -4   4  10 94.4074 73.6457   3
  -4   5  -9 1999.06 221.018   1
   4  -5  -9 1955.34 224.779   2
   4  -5  -8-2.76422 58.6716   2
  -4   5  -8 159.954 79.5733   1
  -4   5  -7 5210.37 325.403   1
   4   5  -7 5103.94 337.414   4
  -4  -5  -7 5137.80 385.353   5
   4  -5  -7 5231.24 356.896   2
   4   5  -7 5146.68 323.821   1
  -4   5  -7 4874.28 305.549   6
  -4  -5  -6 61.5156 43.4440   5
   4   5  -6 187.014 68.5649   1
  -4   5  -6 181.007 59.6572   6
   4   5  -6 242.081 84.4409   4
  -4   5  -6 87.5233 54.5140   1
   4  -5  -6 156.090 84.2989   2
   4   5  -6 232.102 61.6527   9
  -4   5  -5 4092.45 246.010   7
   4   5  -5 3810.89 258.905   9
   4   5  -5 4157.31 243.742   1
  -4   5  -5 4470.27 254.835   1
   4  -5  -5 3821.05 273.542   5
   4   5  -5 3732.60 287.512   4
  -4  -5  -5 4208.78 332.839   5
   4  -5  -5 4010.65 303.744   2
  -4   5  -5 3888.80 274.889   6
  -4  -5  -4 699.332 95.1844   8
  -4   5  -4 599.835 98.4339   7
   4   5  -4 806.900 92.8670   1
  -4   5  -4 931.197 130.721   6
   4  -5  -4 551.764 111.383   2
   4  -5  -4 686.998 111.049   5
  -4   5  -4 653.779 86.2254   1
  -4  -5  -4 649.812 92.7740   2
   4   5  -4 859.537 137.692   4
  -4  -5  -4 642.043 124.205   5
   4   5  -4 658.898 110.835   9
  -4  -5  -3 10215.5 421.111   2
  -4  -5  -3 11191.7 544.447   5
   4   5  -3 10795.6 492.017   9
   4   5  -3 10391.8 514.444   4
  -4  -5  -3 10334.4 441.534   8
   4   5  -3 11462.3 367.167   1
  -4   5  -3 11310.6 510.683   6
   4  -5  -3 10155.1 455.195   5
   4  -5  -3 9436.92 495.954   2
   4  -5  -2 582.296 116.898   2
  -4  -5  -2 631.141 124.226   5
   4  -5  -2 675.989 103.039   5
  -4   5  -2 645.791 107.507   9
  -4  -5  -2 739.971 113.202   8
   4   5  -2 554.100 110.901   4
   4   5  -2 680.926 120.897   9
  -4   5  -2 825.917 132.173   6
  -4  -5  -2 798.778 107.326   2
  -4  -5  -1 9034.32 467.096   5
  -4  -5  -1 8780.41 390.860   2
   4  -5  -1 8766.71 387.561   5
  -4   5  -1 8318.98 421.885   9
   4   5  -1 8382.14 438.898   9
   4  -5  -1 8311.56 442.266   2
  -4  -5  -1 8004.88 404.467   8
   4   5  -1 7795.88 439.585   4
  -4   5  -1 8045.15 434.334   6
   4  -5   0 395.066 79.0468   5
  -4   5   0 345.193 90.2224   9
  -4  -5   0 710.248 127.389   8
  -4  -5   0 696.796 136.333   5
   4   5   0 490.760 128.752   4
   4   5   0 435.132 113.319   9
  -4   5   0 463.245 107.954   6
   4  -5   0 487.123 116.193   2
  -4   5   1 8358.16 433.444   9
   4   5   1 7988.17 441.467   9
   4  -5   1 8833.44 457.720   2
  -4  -5   1 7757.23 423.522   8
   4   5   1 7738.77 439.260   4
  -4   5   1 7635.71 430.024   6
  -4  -5   1 8308.64 448.924   5
   4  -5   1 8157.26 371.040   5
  -4   5   2 524.869 60.7798  10
   4  -5   2 849.172 115.164   5
  -4   5   2 722.589 129.488   9
  -4  -5   2 740.606 137.679   8
   4   5   2 657.447 128.009   9
  -4  -5   2 752.650 135.244   5
   4   5   2 770.232 137.903   4
  -4   5   2 494.197 113.539   6
   4  -5   2 585.731 121.556   2
  -4   5   3 10262.3 516.173   9
   4   5   3 10707.9 536.472   9
  -4   5   3 10748.4 370.564  10
  -4  -5   3 10600.4 526.587   8
   4   5   3 11170.5 534.945   4
  -4   5   3 10273.4 518.417   6
  -4  -5   3 10214.0 538.863   5
   4  -5   3 9856.75 451.469   5
   4  -5   4 565.269 107.467   5
   4   5   4 562.767 124.469   9
  -4   5   4 823.966 138.919   9
  -4   5   4 731.789 87.2655  10
  -4  -5   4 752.926 145.098   8
   4   5   4 693.734 129.839   4
  -4   5   4 460.098 108.607   6
  -4  -5   4 758.425 151.558   5
  -4   5   5 4053.28 320.148   9
   4   5   5 3874.50 318.212   9
  -4  -5   5 4034.58 324.457   8
   4   5   5 3915.84 306.940   4
  -4   5   5 4119.99 316.944   6
   4  -5   5 4039.92 289.445   5
  -4  -5   5 4204.24 338.904   5
  -4   5   6 61.9925 64.2671   9
  -4  -5   6 128.529 93.5059   5
   4  -5   6 122.312 56.1066   5
  -4  -5   6 168.435 110.466   8
   4   5   6 273.006 105.217   9
   4  -5   6 255.272 111.915   8
   4   5   6 189.232 75.0661   4
  -4   5   6 112.807 66.3042   6
   4   5   7 5655.89 394.719   9
  -4   5   7 5814.00 389.806   6
  -4   5   7 5543.00 353.148   3
   4  -5   7 5772.28 410.104   8
  -4  -5   7 5408.30 404.864   8
  -4  -5   7 5432.31 413.576   5
   4   5   7 5767.79 376.345   6
   4  -5   7 5444.32 362.483   5
   4  -5   8 223.678 96.2796   5
  -4   5   8 243.159 82.5021   3
   4   5   8 328.990 128.780   9
   4   5   8 76.1180 59.3617   6
  -4   5   8 23.5657 74.0479   6
   4  -5   9 1821.41 224.375   5
  -4   5   9 2160.36 235.010   6
  -4   5   9 2177.87 231.006   3
   4  -6  -6 205.788 111.151   2
   4   6  -6 337.870 114.258   4
  -4   6  -6 445.132 118.186   6
   4  -6  -5 325.716 100.916   2
   4  -6  -5 326.259 93.3188   5
   4   6  -5 112.479 87.0982   4
  -4   6  -5 142.804 74.3781   6
   4  -6  -4 86.7484 67.0830   2
   4  -6  -4 264.229 89.4531   5
   4   6  -4 268.977 95.6677   9
  -4  -6  -4 337.473 114.591   5
   4   6  -4 146.371 96.1317   4
  -4   6  -4 229.052 92.5000   6
   4  -6  -3 608.455 122.337   2
  -4  -6  -3 658.355 132.538   5
   4   6  -3 547.304 117.292   9
  -4   6  -3 655.326 119.852   6
  -4  -6  -3 639.338 114.784   8
   4  -6  -3 817.044 125.292   5
   4   6  -3 679.996 140.179   4
   4  -6  -2 146.260 67.8817   2
  -4  -6  -2 214.513 86.3369   5
   4  -6  -2 236.319 84.0027   5
   4   6  -2 390.225 116.901   9
  -4  -6  -2 174.374 79.9604   8
   4   6  -2 84.6177 65.6272   4
  -4   6  -2 192.523 79.2477   6
  -4  -6  -2 94.1149 37.6432   2
  -4   6  -1 157.626 77.3972   9
   4  -6  -1 258.064 81.8831   5
  -4  -6  -1 137.249 76.0546   5
   4   6  -1 196.306 91.3649   9
  -4  -6  -1 201.394 76.9742   8
   4   6  -1 272.136 88.6288   4
  -4   6  -1 440.920 108.543   6
  -4  -6  -1 68.7953 52.6652   2
   4  -6  -1 220.606 80.6248   2
   4   6   0 117.131 86.7922   9
  -4  -6   0 3.98092 54.0958   5
   4  -6   0 71.1681 43.0079   5
  -4   6   0-27.4549 73.8676   9
  -4  -6   0 151.009 86.2115   8
   4   6   0 103.891 89.6059   4
  -4   6   0 107.683 68.9305   6
  -4  -6   0-70.3136 50.8846   2
   4  -6   0 77.0060 47.1193   2
   4   6   1 58.4598 66.8377   9
  -4  -6   1 153.312 74.6304   8
  -4  -6   1 221.382 98.6460   5
   4  -6   1 177.848 63.7641   5
   4   6   1 331.361 98.3039   4
  -4   6   1 206.326 80.1578   9
  -4   6   1 252.687 99.4916   6
   4  -6   1 144.473 88.1460   2
  -4  -6   2 149.428 77.7004   5
   4  -6   2 179.226 70.7228   5
   4   6   2 152.576 74.0856   9
  -4   6   2 357.013 109.475   9
  -4  -6   2 112.337 70.9658   8
   4   6   2 203.050 93.9269   4
  -4   6   2 212.476 98.0888   6
   4  -6   2 143.730 77.4089   2
  -4  -6   3 911.903 165.459   5
   4   6   3 753.031 157.694   9
  -4   6   3 887.016 157.307   9
  -4  -6   3 1162.87 187.953   8
   4   6   3 780.208 142.404   4
   4  -6   3 647.419 112.023   5
   4  -6   3 776.182 153.459   2
  -4   6   3 781.223 155.673   6
   4  -6   3 668.555 138.173   8
  -4  -6   4 345.018 116.022   5
   4  -6   4 199.789 86.4808   5
   4   6   4 461.645 132.986   9
  -4   6   4 453.807 124.758   9
  -4  -6   4 312.760 111.995   8
   4  -6   4 316.748 119.907   8
   4  -6   4 214.363 91.3964   2
   4   6   4 254.005 94.0438   4
  -4   6   4 318.369 107.724   6
   4  -6   5 120.783 62.8342   5
   4  -6   6 306.082 108.846   5
   4  -7  -1 486.022 116.691   8
  -5   0 -11-150.504 88.0955   1
   5   0 -11 16.2689 85.0269   1
   5   0 -10 87.8215 38.6540   4
  -5   0 -10 113.794 81.7073   1
   5   0  -9 6.62197 26.1691   4
   5   0  -9 21.8742 37.6396   8
  -5   0  -9-19.8111 51.9148   1
   5   0  -9-3.60611 28.1162   6
   5   0  -8-15.9628 25.8091   6
   5   0  -8-19.8404 42.9562   8
  -5   0  -8-51.3894 54.4527   1
   5   0  -7-48.4838 36.7313   2
   5   0  -7 43.9772 33.5230   8
  -5   0  -7 29.9058 51.6871   1
   5   0  -7 67.6248 35.3104   6
   5   0  -6 1.30143 36.9707   3
   5   0  -6 29.4592 34.1051   9
   5   0  -6 13.3962 26.2974   8
   5   0  -6 39.4347 43.4000   2
  -5   0  -6-1.14031 46.1766   1
   5   0  -5 81.3175 43.4986   2
   5   0  -5 20.7075 33.8201   3
   5   0  -5 39.4122 34.2996   8
  -5   0  -5 56.6625 55.4394   1
   5   0  -4 0.28891 35.3200   2
   5   0  -4 10.3025 29.5464   8
   5   0  -4 23.3624 24.4164   6
   5   0  -4 20.5857 23.5790   3
   5   0  -3 1.81238 28.6846   2
   5   0  -3 27.8614 28.4463   8
  -5   0  -3 28.4574 37.6932   1
  -5   0  -3-37.6274 32.4321   7
   5   0  -3 3.99881 19.2742   3
   5   0  -3 68.9652 32.9051   6
  -5   0  -2 38.6395 22.2673   5
   5   0  -2 25.6815 23.6628   2
  -5   0  -2 35.5967 38.1285   1
   5   0  -2 13.8832 28.1661   8
  -5   0  -2 19.8697 21.7483   7
   5   0  -2 2.33593 20.0052   3
   5   0  -1 54.2368 28.5418   2
  -5   0  -1 7.41514 16.2474   5
   5   0  -1-0.12885 14.7931   3
   5   0  -1 12.7345 24.1662   8
  -5   0  -1 12.6942 23.2984   7
  -5   0  -1 8.64747 43.5859  10
  -5   0  -1-3.55283 17.9591   2
  -5   0   0 47.3482 23.6782   2
   5   0   0 24.2399 22.0301   2
  -5   0   0 25.6838 18.4976   5
   5   0   0 53.5856 25.6363   5
  -5   0   0-20.3344 41.4370  10
   5   0   0 40.5896 31.1170   8
  -5   0   0-0.41037 20.8309   7
   5   0   1 28.9221 19.1055   2
  -5   0   1 90.8261 34.6257   7
  -5   0   1 26.8619 20.3296   2
   5   0   1 5.83521 19.9460   5
  -5   0   1 144.887 46.0781  10
   5   0   1 39.3632 27.2271   6
  -5   0   1 10.6634 28.5260   6
  -5   0   1 6.52313 22.3986   5
  -5   0   2 20.5774 26.9936   3
  -5   0   2 45.7897 51.4688  10
   5   0   2-3.93405 20.0492   5
   5   0   2 30.0496 22.1456   4
   5   0   2 20.8918 24.1929   9
   5   0   2-6.27882 21.7670   6
  -5   0   2 60.1103 32.9194   6
   5   0   2 17.4698 17.0593   2
   5   0   3 9.95827 16.8604   4
   5   0   3 9.24525 22.1926   9
  -5   0   3 35.5429 25.7355   3
   5   0   3-8.28576 20.5948   5
   5   0   3-2.68878 25.8441   3
  -5   0   3 51.0140 39.1412   8
   5   0   3 25.3841 16.5020   6
   5   0   4 2.91108 27.1195   5
  -5   0   4 6.91855 27.1029   8
   5   0   4 32.7282 23.3725   9
   5   0   4 19.2136 13.6933   4
   5   0   4-19.7537 24.8460   3
   5   0   4 10.4600 15.4297   6
  -5   0   4 66.0646 33.9389   3
   5   0   5 26.9935 22.6577   9
   5   0   5 75.9451 40.7262   5
   5   0   5 13.8274 37.4475   3
  -5   0   5-7.78283 32.4925   8
   5   0   5 44.0651 18.4971   4
   5   0   5-12.0463 29.4082   7
  -5   0   5 30.0130 31.1746   3
   5   0   5 5.19834 9.14372   6
   5   0   6 48.8638 30.8688   9
  -5   0   6 47.2822 45.7248   2
   5   0   6-25.0311 31.5553   5
   5   0   6-2.37279 22.1742   2
  -5   0   6 46.5969 28.0857   8
   5   0   6 85.5542 51.9647   7
  -5   0   6 32.3508 42.0973   3
   5   0   6 75.1978 63.7155   1
   5   0   6-9.88340 28.9174   3
   5   0   7 0.54961 25.1559   2
   5   0   7 35.6305 51.5536   3
  -5   0   7 6.16062 43.3211   3
  -5   0   7 25.4946 34.3435   8
   5   0   7 11.3150 23.1896   9
   5   0   8 19.7101 35.6929   3
   5   0   8 4.72470 33.3573   2
  -5   0   8 28.5316 38.3781   8
   5   0   8 9.21736 24.3117   9
  -5   0   8 89.6409 56.4043   3
   5   0   9 3.05021 39.9376   2
   5   0   9 33.3998 48.4556   3
  -5   0   9 140.838 65.3505   3
   5   0   9 54.1855 26.1427   9
   5   0   9 90.4284 47.3831   8
  -5   0   9 108.622 42.9986   8
  -5   0  10 40.1735 39.6105   8
  -5   0  10 41.6742 45.1995   3
   5   0  10-47.1104 33.4756   8
   5   0  10-25.5090 48.7357   3
  -5   0  11 46.5338 73.9896   3
   5   0  11 28.8191 67.7792   3
  -5   0  12 49.9705 53.1036   3
   5  -1 -11 1701.42 244.538   1
  -5   1 -11 1598.55 234.514   1
   5   1 -11 1713.77 249.255   1
  -5  -1 -11 1237.97 207.828   1
   5   1 -10 4391.36 231.945   4
  -5   1 -10 4224.49 364.568   1
  -5  -1 -10 3801.42 339.170   1
   5   1  -9 1.60839 17.4628   9
   5  -1  -9-1.14907 41.1152   2
   5   1  -9 18.8109 31.2058   4
  -5   1  -9 4.31937 64.6461   1
  -5  -1  -9-50.0456 63.0888   1
   5   1  -9-9.88577 32.8465   6
   5  -1  -8 1358.70 133.223   9
  -5  -1  -8 1436.07 83.6401   4
   5   1  -8 1257.01 97.9948   9
   5   1  -8 1527.95 128.466   4
   5  -1  -8 1436.53 113.110   8
   5   1  -8 1375.58 100.519   9
   5  -1  -8 1424.91 125.765   6
   5   1  -8 1565.83 125.563   6
  -5   1  -8 1417.48 178.818   1
   5  -1  -8 1745.61 165.856   2
  -5  -1  -8 1423.16 182.607   1
   5   1  -7 1376.49 100.222   9
   5  -1  -7 1415.75 132.087   9
   5   1  -7 1599.25 142.404   8
  -5  -1  -7 1533.52 92.8768   4
   5  -1  -7 1436.46 109.463   8
   5  -1  -7 1715.92 133.719   6
   5  -1  -7 1655.34 155.983   2
   5   1  -7 1695.18 127.584   6
   5   1  -7 1619.57 127.780   4
  -5   1  -7 1734.44 190.767   1
  -5  -1  -7 1426.95 174.407   1
  -5  -1  -6 7307.07 380.393   1
   5   1  -6 7063.52 263.356   9
   5  -1  -6 7284.12 307.573   9
   5   1  -6 7215.90 295.768   4
  -5  -1  -6 7099.68 248.110   4
   5  -1  -6 6923.90 271.525   8
   5   1  -6 7587.76 320.436   8
   5  -1  -6 7165.36 299.200   6
  -5   1  -6 8051.40 327.613   3
   5  -1  -6 7292.77 334.886   2
   5   1  -6 7281.68 320.420   3
  -5   1  -6 6746.23 375.875   1
  -5   1  -5 5967.75 328.081   1
  -5  -1  -5 5737.02 218.968   4
   5   1  -5 5586.64 249.783   4
   5  -1  -5 5604.81 234.157   8
   5   1  -5 6176.13 274.642   8
  -5   1  -5 5593.51 253.859   7
  -5  -1  -5 6013.05 249.363   9
  -5  -1  -5 6342.10 322.283   1
   5   1  -5 5643.00 227.898   9
   5  -1  -5 5934.86 280.933   2
  -5   1  -5 6207.64 182.240   6
   5   1  -5 6581.90 276.756   3
  -5  -1  -4 12290.0 421.542   5
  -5   1  -4 12285.2 483.351   1
  -5  -1  -4 13017.1 472.690   1
   5   1  -4 12251.4 408.297   4
  -5  -1  -4 11861.2 372.735   4
  -5  -1  -4 12052.4 402.393   9
   5  -1  -4 11866.8 386.638   8
   5   1  -4 13166.4 428.318   8
  -5   1  -4 12067.4 405.179   7
   5   1  -4 12259.8 384.779   9
   5  -1  -4 12454.0 433.403   2
  -5   1  -4 12502.0 393.600   3
  -5   1  -4 11793.0 339.296   6
   5   1  -4 12307.3 408.563   3
   5   1  -3 4493.84 196.000   9
  -5  -1  -3 4798.65 214.736   5
  -5  -1  -3 4720.68 207.693   9
  -5   1  -3 4363.03 245.605   1
   5   1  -3 4837.63 212.744   4
  -5  -1  -3 4534.49 189.855   4
  -5   1  -3 4806.22 185.749   3
  -5  -1  -3 4839.70 241.488   1
   5  -1  -3 4350.87 193.508   8
   5   1  -3 4842.75 217.504   8
   5  -1  -3 4881.87 214.664   9
  -5   1  -3 4705.84 207.331   7
   5  -1  -3 4743.48 221.640   2
  -5   1  -3 4794.13 174.784   6
   5   1  -3 4499.92 201.108   3
   5   1  -2 41790.0 1048.55   9
  -5  -1  -2 40757.8 1039.89   4
  -5  -1  -2 41116.1 1057.82   5
   5   1  -2 41281.0 1065.56   8
  -5   1  -2 38546.7 1101.46   1
   5  -1  -2 39591.1 1060.85   2
  -5   1  -2 40581.9 1055.00   7
  -5   1  -2 40403.9 1113.37  10
  -5  -1  -2 41700.2 1085.53   1
  -5   1  -2 40886.0 993.467   3
  -5   1  -2 42822.4 1025.18   6
   5   1  -2 42884.2 1065.72   4
   5   1  -2 41907.9 1047.50   3
  -5  -1  -1 5911.71 227.858   5
  -5   1  -1 5552.13 251.412  10
   5   1  -1 5182.72 218.630   4
   5   1  -1 5284.63 218.395   8
  -5   1  -1 5041.66 213.200   7
   5  -1  -1 5485.96 218.604   2
  -5  -1  -1 5198.92 151.003   2
   5   1  -1 5097.94 183.356   7
  -5   1  -1 5373.19 204.176   6
  -5  -1  -1 5229.49 205.985   8
   5   1  -1 5566.04 220.645   9
   5   1  -1 5131.11 191.885   2
  -5  -1  -1 5453.08 232.274  10
   5   1  -1 5584.93 225.142   5
  -5  -1   0 12507.8 408.116  10
   5   1   0 12352.8 385.957   9
   5   1   0 12210.6 384.628   4
  -5   1   0 11644.2 416.742  10
  -5  -1   0 12187.6 361.017   7
   5   1   0 12214.8 378.046   8
   5   1   0 11269.5 352.478   7
  -5  -1   0 11882.6 331.071   2
   5   1   0 12909.2 397.886  10
  -5   1   0 11975.6 372.245   6
   5  -1   0 11854.3 375.540   2
   5   1   0 11203.6 400.410   5
  -5  -1   0 12290.0 409.572   5
   5   1   1 6332.55 256.416  10
  -5  -1   1 5469.03 248.160  10
   5   1   1 6281.72 242.023   9
   5   1   1 6090.31 236.045   4
   5  -1   1 6451.30 243.841   2
  -5  -1   1 6148.10 207.115   7
   5  -1   1 6009.40 165.060   5
   5   1   1 5508.45 250.073   1
   5   1   1 5758.22 222.569   8
  -5   1   1 6253.14 270.568  10
  -5  -1   1 6036.93 213.011   2
   5  -1   1 6203.69 224.796   6
  -5   1   1 6166.90 237.298   6
   5  -1   1 6268.14 171.608   3
  -5  -1   1 6303.09 263.813   5
   5   1   1 6579.43 263.126   5
  -5   1   1 6148.51 163.805   5
  -5  -1   2 40696.7 1134.07  10
  -5   1   2 44259.1 1155.26  10
   5   1   2 43670.1 1071.94   8
  -5  -1   2 42461.4 1040.36   7
   5   1   2 40598.6 1131.70  10
   5   1   2 44232.1 1108.12   9
   5   1   2 40575.0 1135.08   1
   5   1   2 44027.8 1086.73   4
   5  -1   2 42255.3 1033.99   5
   5  -1   2 43769.0 1068.37   6
  -5  -1   2 44224.3 1093.32   2
  -5   1   2 45120.5 1110.35   6
  -5   1   2 44423.1 1022.36   3
   5  -1   2 41920.0 1038.17   3
  -5  -1   2 45051.6 1123.91   5
   5   1   2 44055.6 1114.64   5
   5   1   3 5489.48 238.026   5
   5   1   3 5566.54 229.351   9
  -5  -1   3 5504.41 234.434   3
   5   1   3 5545.19 216.619   4
   5   1   3 5403.51 199.348   8
   5   1   3 5721.96 268.361  10
   5  -1   3 5611.00 232.000   7
  -5  -1   3 5803.59 181.892   7
   5  -1   3 5598.54 194.981   6
  -5  -1   3 5243.12 230.686   2
  -5   1   3 5543.88 236.100   6
  -5   1   3 5609.79 194.707   3
   5  -1   3 5410.08 205.066   3
  -5  -1   3 5458.12 238.876   5
   5   1   3 5576.62 266.330   1
   5   1   4 15237.6 480.963   5
   5   1   4 14234.4 428.736   4
   5   1   4 14419.6 452.212   9
  -5  -1   4 14000.3 460.269   3
   5   1   4 13760.3 397.672   8
  -5  -1   4 14234.1 466.760   8
   5  -1   4 14534.7 457.514   7
   5   1   4 13860.0 351.123   2
   5  -1   4 14127.2 388.118   6
   5   1   4 15013.3 523.544   1
  -5   1   4 14478.6 460.360   6
  -5   1   4 14363.7 424.423   3
   5  -1   4 14080.1 437.253   3
   5  -1   5 5520.55 192.906   9
   5  -1   5 6065.69 253.758   7
   5   1   5 5633.53 242.901   9
   5   1   5 5876.92 305.502   1
   5   1   5 5316.27 188.175   8
  -5  -1   5 5476.86 252.391   8
   5   1   5 5724.34 230.175   4
   5  -1   5 5625.83 161.637   4
   5   1   5 5336.79 173.146   2
   5   1   5 5286.05 254.672   3
  -5   1   5 5745.69 247.702   6
  -5   1   5 5408.30 230.521   3
   5  -1   5 5264.68 238.689   3
   5  -1   5 4525.91 149.741   4
   5   1   5 6031.85 273.943   5
  -5  -1   5 5451.38 252.570   3
  -5   1   6 8155.24 324.861   3
   5   1   6 8198.30 254.405   8
   5  -1   6 8348.96 252.354   9
   5   1   6 8232.66 358.934   5
   5   1   6 8077.33 325.965   9
  -5  -1   6 8126.82 337.543   8
   5   1   6 8122.17 297.976   4
   5   1   6 8760.48 414.156   1
   5  -1   6 8580.76 335.442   7
   5   1   6 8495.24 355.790   7
   5   1   6 8288.75 353.553   3
  -5   1   6 7969.92 323.790   6
   5  -1   6 8197.10 337.752   3
   5   1   6 7903.24 260.860   2
  -5  -1   6 8022.90 344.146   3
   5   1   7 1451.24 80.1311   8
   5  -1   7 1619.41 135.750   7
   5   1   7 1782.86 142.733   9
   5  -1   7 1601.41 80.6128   9
  -5  -1   7 1461.91 130.826   8
   5   1   7 1570.11 77.3654   6
   5   1   7 1470.05 144.850   3
  -5   1   7 1585.54 129.188   6
  -5   1   7 1583.81 136.288   3
   5  -1   7 1605.47 143.969   3
   5   1   7 1625.63 104.301   2
  -5  -1   7 1622.41 148.262   3
   5   1   8 1277.60 131.512   9
   5   1   8 1282.70 70.3338   8
   5   1   8 1570.73 79.7879   8
   5   1   8 1459.39 109.536   2
   5   1   8 1335.53 146.563   3
  -5   1   8 1525.26 129.889   6
  -5   1   8 1303.68 136.396   3
   5  -1   8 1355.27 144.096   3
  -5  -1   8 1388.69 150.080   3
  -5  -1   8 1547.25 141.946   8
   5   1   9 82.4255 56.1936   9
  -5   1   9-37.3437 48.2021   3
   5  -1   9 39.9216 48.7882   3
   5   1   9 88.1496 62.7442   3
   5   1   9 27.0212 27.8330   2
  -5  -1   9 36.2972 45.1924   3
  -5  -1   9 32.7578 38.4571   8
   5   1   9 45.1057 12.0509   8
   5   1  10 4226.64 226.508   9
  -5  -1  10 4006.01 251.763   8
   5  -1  10 4450.89 258.009   8
  -5  -1  10 3674.63 275.171   3
   5   1  10 4152.01 293.655   3
  -5   1  10 3702.82 266.693   3
   5  -1  10 3792.35 277.736   3
   5  -1  11 1315.06 176.633   3
  -5  -1  11 1607.62 188.022   3
  -5   1  11 1206.40 157.911   3
  -5  -1  11 1255.45 141.147   8
   5   1  11 1184.50 167.533   3
  -5   1  12 1130.44 165.532   3
   5  -2 -11 1374.40 177.271   2
   5  -2 -11 1469.29 222.368   1
   5   2 -11 1213.65 207.438   1
  -5   2 -11 1509.85 229.002   1
  -5  -2 -11 1256.84 205.348   1
  -5  -2 -10 4417.98 350.652   1
   5   2 -10 3845.79 335.315   1
   5  -2 -10 3928.52 291.312   2
  -5   2 -10 4495.11 366.270   1
   5   2  -9 3210.62 197.757   4
  -5  -2  -9 2933.22 269.163   1
   5  -2  -9 3081.92 241.505   2
  -5   2  -9 3702.97 318.578   1
   5   2  -8 6543.24 295.048   4
   5  -2  -8 7019.92 257.161   8
   5  -2  -8 5794.92 332.720   2
   5   2  -8 6226.42 286.782   6
  -5  -2  -8 6407.90 383.912   1
   5   2  -8 6510.60 238.913   9
  -5   2  -8 5805.27 384.673   1
  -5  -2  -7 4022.64 276.999   1
  -5  -2  -7 3855.13 227.435   9
   5   2  -7 3946.42 215.913   4
   5  -2  -7 4054.40 184.923   8
   5  -2  -7 3770.02 246.306   2
  -5   2  -7 3926.05 139.536   6
   5   2  -7 3857.66 213.380   6
   5   2  -7 4047.67 183.152   9
  -5   2  -7 4164.94 299.223   1
  -5   2  -6 6391.19 361.063   1
  -5  -2  -6 6017.97 321.073   5
  -5  -2  -6 6215.02 334.690   1
   5   2  -6 6571.89 255.616   9
   5  -2  -6 7040.08 333.563   9
   5  -2  -6 6550.86 254.033   8
   5   2  -6 6164.44 282.998   4
  -5  -2  -6 6689.32 305.667   9
  -5   2  -6 6419.21 285.122   7
   5  -2  -6 6166.76 314.843   2
   5  -2  -6 6922.06 310.840   6
  -5   2  -6 6579.72 222.706   6
  -5   2  -6 6729.77 303.509   3
  -5   2  -5 4404.52 277.687   1
  -5  -2  -5 4569.43 241.137   9
   5   2  -5 4553.29 204.473   9
  -5  -2  -5 4590.77 258.021   1
   5  -2  -5 4781.15 256.571   9
   5  -2  -5 4481.73 201.559   8
   5   2  -5 4749.18 256.691   8
  -5   2  -5 4669.88 224.421   7
   5   2  -5 4378.41 226.568   4
   5  -2  -5 4435.36 247.436   2
  -5  -2  -5 4484.19 256.963   5
   5  -2  -5 4620.78 239.043   6
  -5   2  -5 4518.95 184.059   6
  -5   2  -5 4876.38 231.241   3
   5   2  -5 4713.97 250.239   3
  -5   2  -4 23087.2 740.017   1
  -5  -2  -4 22830.5 691.808   1
  -5  -2  -4 22923.3 686.600   9
   5   2  -4 22126.0 637.701   9
   5  -2  -4 22378.3 697.912   9
   5   2  -4 23506.0 704.594   8
   5   2  -4 21461.9 664.121   4
   5  -2  -4 20924.7 682.116   2
  -5   2  -4 21319.2 651.201   7
   5  -2  -4 23151.4 686.369   6
  -5   2  -4 22418.9 618.067   6
  -5  -2  -4 21284.4 698.256   5
   5   2  -4 24042.5 702.347   3
   5   2  -3 32212.1 868.340   9
  -5   2  -3 33702.2 938.366   1
  -5  -2  -3 32339.1 923.613   5
   5   2  -3 33294.4 915.494   8
   5  -2  -3 30164.4 896.758   2
  -5  -2  -3 32859.0 886.541   1
   5   2  -3 31763.8 890.706   4
  -5   2  -3 31108.5 874.390   7
  -5  -2  -3 32579.4 903.357   9
  -5   2  -3 32135.2 851.806   6
  -5   2  -3 31476.6 837.082   3
  -5  -2  -3 31469.6 827.827   8
   5   2  -3 34826.9 920.745   3
   5   2  -2 54059.5 1380.38   9
   5   2  -2 52730.4 1392.97   4
  -5  -2  -2 53711.8 1260.37   2
  -5  -2  -2 55624.6 1350.72   8
   5   2  -2 56609.0 1414.30   8
   5  -2  -2 53556.4 1406.44   2
  -5   2  -2 56065.8 1420.22   1
  -5   2  -2 53043.4 1383.62   7
  -5  -2  -2 53788.6 1426.89   5
   5   2  -2 55420.7 1292.62   7
  -5   2  -2 53165.8 1364.64   6
  -5   2  -2 54911.3 1316.59   3
  -5   2  -1 32451.9 892.576  10
  -5  -2  -1 32660.5 835.437  10
   5   2  -1 31522.8 864.103   9
   5   2  -1 32375.6 876.224   4
  -5  -2  -1 31807.4 844.188   8
   5  -2  -1 31639.6 884.906   2
   5   2  -1 33336.0 878.067   8
   5  -2  -1 30078.1 881.570  10
   5   2  -1 30123.2 794.800   7
   5  -2  -1 31306.3 761.114   5
  -5   2  -1 31694.0 856.785   6
  -5   2  -1 32077.7 777.916   3
  -5  -2  -1 31455.4 909.289   5
   5  -2   0 105375. 2598.32   2
   5   2   0 108255. 2574.30   9
   5   2   0 107577. 2575.73   4
  -5  -2   0 107238. 2557.43   8
   5   2   0 110742. 2562.19   8
   5  -2   0 105451. 2548.42   1
  -5   2   0 107630. 2588.40  10
   5   2   0 105435. 2520.31   7
  -5  -2   0 108353. 2533.84  10
   5  -2   0 113134. 2601.71  10
  -5   2   0 105417. 2563.84   6
   5   2   0 107256. 2518.69  10
  -5  -2   0 107721. 2640.71   5
  -5   2   0 111228. 2463.49   3
   5   2   1 30904.5 849.494   9
   5  -2   1 30508.9 841.076   1
   5  -2   1 31145.7 825.281   9
   5   2   1 31294.9 828.389   1
   5   2   1 30247.4 845.138   4
   5   2   1 31066.0 817.858   8
   5  -2   1 29663.7 878.021   2
  -5   2   1 30456.8 857.396  10
  -5  -2   1 31118.8 822.565  10
   5   2   1 30249.8 805.076  10
   5  -2   1 30719.1 829.427   6
  -5   2   1 29467.8 836.254   6
  -5  -2   1 29902.2 833.044   9
   5  -2   1 31875.4 872.994  10
  -5  -2   1 29882.3 793.651   2
   5  -2   1 30240.8 753.431   5
  -5   2   1 29846.0 752.133   5
  -5  -2   1 30031.8 906.658   5
  -5   2   2 57019.7 1339.71   5
  -5  -2   2 55566.5 1422.83  10
   5   2   2 57539.9 1424.55   1
   5   2   2 56298.8 1440.48   9
   5  -2   2 56906.2 1396.13   9
   5   2   2 55451.4 1429.49   4
   5   2   2 55606.2 1408.46  10
   5  -2   2 57644.2 1466.74  10
   5   2   2 56054.4 1382.88   8
   5  -2   2 51574.1 1385.66   4
  -5  -2   2 57481.4 1413.88   9
   5  -2   2 58046.1 1357.12   3
  -5   2   2 57851.1 1452.99  10
  -5   2   2 54881.9 1431.82   6
  -5  -2   2 55613.0 1401.22   2
   5  -2   2 54684.1 1341.26   5
  -5  -2   2 56576.7 1487.87   5
   5  -2   2 56685.0 1452.95   1
  -5   2   3 30784.2 909.135  10
   5   2   3 30402.1 895.694   9
   5  -2   3 32281.5 842.242   9
  -5  -2   3 33529.8 896.450   4
   5  -2   3 32167.5 847.424   4
   5   2   3 32022.4 893.172   4
   5   2   3 31301.3 825.413   8
  -5   2   3 32309.0 831.631   5
  -5   2   3 32745.4 898.129   6
  -5   2   3 31758.2 817.200   3
   5   2   3 34008.8 904.854   1
   5   2   3 30788.6 888.301  10
   5  -2   3 33331.3 936.059  10
  -5  -2   3 32773.8 932.583   5
   5  -2   3 32217.5 839.844   3
   5   2   4 21942.1 682.097   9
   5  -2   4 23505.1 726.823  10
   5  -2   4 21659.6 598.662   9
   5  -2   4 21515.2 611.318   4
  -5  -2   4 22150.0 663.369   4
  -5   2   4 23470.5 696.138   2
   5   2   4 22904.1 680.460   4
   5   2   4 21278.1 581.045   8
  -5  -2   4 21386.4 681.982   8
  -5   2   4 22704.7 632.794   5
   5  -2   4 22663.7 728.466   1
   5   2   4 22646.0 691.805   1
  -5   2   4 21559.9 668.428   6
  -5   2   4 20780.5 608.977   3
  -5  -2   4 23229.4 685.928   2
  -5  -2   4 21474.6 697.736   5
   5  -2   4 22143.3 635.961   3
   5  -2   5 4911.73 283.097  10
   5   2   5 4602.01 253.131   9
   5  -2   5 4781.25 184.363   9
  -5  -2   5 4493.40 250.895   8
  -5   2   5 4999.11 261.586   2
   5  -2   5 5234.46 200.504   4
   5   2   5 4693.98 167.406   8
   5   2   5 4639.95 250.438   4
   5   2   5 5300.64 283.645  10
  -5  -2   5 5181.40 271.254   3
   5   2   5 4765.22 264.530   1
   5  -2   5 4728.35 292.384   1
  -5   2   5 5086.54 249.361   6
  -5   2   5 4512.04 214.585   3
  -5  -2   5 4748.72 256.070   2
  -5  -2   5 4374.74 257.598   5
   5  -2   5 4793.53 231.309   3
  -5  -2   6 7627.87 363.844   3
   5   2   6 7876.27 365.337   9
  -5   2   6 8214.71 339.631   5
   5  -2   6 7899.73 245.909   9
   5  -2   6 8158.53 253.007   9
  -5   2   6 7908.01 324.283   3
   5   2   6 7893.21 238.986   2
   5  -2   6 8254.82 238.418   4
  -5  -2   6 7541.87 356.631   8
   5   2   6 7891.22 220.508   8
   5   2   6 8101.36 349.050   4
   5   2   6 8852.72 396.414   1
  -5   2   6 7807.70 336.482   6
   5  -2   6 7690.59 333.535   3
   5   2   7 3163.81 229.430   9
  -5   2   7 3408.55 210.636   6
   5   2   7 3398.50 204.692   4
   5   2   7 3473.93 145.988   2
   5   2   7 3213.41 229.871   3
  -5  -2   7 3232.11 222.235   8
  -5   2   7 2945.72 197.583   3
   5  -2   7 3309.46 215.973   3
  -5  -2   7 3370.85 234.516   3
  -5  -2   8 5808.11 318.539   8
   5   2   8 5897.70 333.167   9
   5   2   8 5859.11 228.117   2
   5  -2   8 5688.12 274.875   7
   5   2   8 6353.70 245.734   6
   5   2   8 5844.53 332.505   3
  -5   2   8 6214.34 299.357   6
  -5   2   8 5338.73 295.498   3
   5  -2   8 6047.02 317.942   3
  -5  -2   8 5848.79 337.178   3
   5   2   9 3590.02 252.902   9
  -5  -2   9 3132.61 234.198   8
   5   2   9 3270.73 252.968   3
  -5   2   9 3402.85 218.581   6
  -5   2   9 3177.38 232.465   3
   5  -2   9 3136.58 239.123   3
  -5  -2   9 3199.39 255.950   3
   5  -2  10 4555.70 308.482   8
  -5  -2  10 4219.32 285.657   8
   5   2  10 3971.04 299.655   3
  -5   2  10 4456.44 254.208   6
  -5   2  10 3953.94 280.906   3
   5  -2  10 4902.85 317.838   3
   5   2  10 4708.49 291.078   9
  -5  -2  10 4383.92 316.195   3
   5   2  11 1715.53 199.935   3
  -5   2  11 1522.59 181.555   3
  -5  -2  11 1648.37 202.563   3
  -5  -2  11 1294.14 157.769   8
   5  -2  11 1496.86 174.605   8
   5  -2  11 1786.23 203.843   3
  -5   2  12 3682.23 300.672   3
  -5  -3 -11 1217.56 186.714   1
   5  -3 -11 1305.45 198.995   1
   5  -3 -11 1142.43 166.804   2
  -5  -3 -10 4286.72 333.673   1
  -5   3 -10 4880.68 379.253   1
   5  -3 -10 4652.68 355.422   1
   5   3 -10 4919.11 375.346   1
   5  -3 -10 4898.26 334.810   2
  -5  -3  -9 1103.96 155.704   1
   5  -3  -9 1312.90 162.611   2
   5   3  -9 1475.83 142.150   4
   5   3  -9 1490.03 201.598   1
  -5   3  -9 1325.03 187.865   1
  -5  -3  -8 9557.91 462.545   1
   5   3  -8 9841.92 411.788   4
  -5   3  -8 9484.67 501.000   1
   5  -3  -8 10179.8 469.504   2
  -5   3  -7 2957.91 248.090   1
   5   3  -7 3084.15 170.035   9
  -5  -3  -7 2913.63 219.252   1
   5   3  -7 2946.37 202.987   4
  -5   3  -7 3055.64 194.678   7
  -5  -3  -7 2796.39 241.836   5
  -5   3  -7 3140.82 165.142   6
   5  -3  -7 2770.02 224.150   2
   5   3  -6 4807.42 228.406   9
  -5  -3  -6 4878.12 270.130   1
   5   3  -6 4478.39 256.911   4
  -5  -3  -6 5051.65 315.049   5
   5  -3  -6 4488.87 212.362   8
  -5   3  -6 4983.08 250.801   7
   5  -3  -6 4480.08 278.434   2
  -5   3  -6 5283.12 318.803   1
  -5   3  -6 5239.10 234.753   6
  -5   3  -5 1099.36 133.804   1
   5   3  -5 1230.51 110.591   9
  -5  -3  -5 1020.80 134.860   5
  -5  -3  -5 918.953 104.765   1
   5   3  -5 1296.91 131.366   4
  -5   3  -5 1189.49 114.795   7
   5  -3  -5 1187.52 136.786   2
  -5   3  -5 1090.20 104.063   6
  -5  -3  -5 1037.07 61.7736   2
  -5   3  -5 960.218 108.444   3
  -5   3  -4 5979.94 297.873   1
  -5  -3  -4 5622.51 292.950   4
   5   3  -4 5251.48 276.166   4
  -5  -3  -4 5410.91 220.608   8
   5  -3  -4 5413.08 293.260   2
  -5  -3  -4 5402.38 309.739   5
  -5  -3  -4 5456.30 247.250   1
  -5   3  -4 5647.91 266.141   7
   5   3  -4 5308.25 253.885   9
  -5  -3  -4 5565.83 178.456   2
  -5   3  -4 5409.16 253.917   3
  -5   3  -4 5266.93 255.129   6
  -5   3  -3 575.683 81.7626   6
  -5  -3  -3 483.514 86.1506   5
   5  -3  -3 465.973 85.4452   2
  -5   3  -3 617.091 87.5553   1
   5   3  -3 543.245 78.4549   9
  -5  -3  -3 513.068 46.7758   2
  -5  -3  -3 569.321 68.8721   8
   5   3  -3 578.112 40.8150   7
  -5  -3  -3 510.995 84.1904   4
   5   3  -3 416.185 79.4485   4
  -5   3  -3 540.164 83.6151   7
  -5  -3  -2 9677.75 428.113   5
  -5  -3  -2 9068.16 307.512   2
   5   3  -2 9830.93 398.531   4
   5   3  -2 9097.23 374.411   9
  -5  -3  -2 10544.5 420.723   9
   5   3  -2 9190.22 415.419   3
   5  -3  -2 10047.5 411.363   9
  -5  -3  -2 10260.8 411.167   4
   5   3  -2 10437.2 410.330   8
   5  -3  -2 10413.3 410.824   4
   5  -3  -2 9842.14 327.401   5
   5   3  -2 9673.70 298.620   7
  -5   3  -2 10264.3 371.642   1
  -5   3  -2 9392.23 381.530   6
  -5   3  -2 9265.90 331.694   3
   5  -3  -2 9496.46 404.338   2
  -5   3  -1 5199.19 244.218  10
  -5  -3  -1 5406.35 276.527   9
   5  -3  -1 4901.99 198.347   5
   5  -3  -1 5454.44 273.680   9
   5  -3  -1 4325.14 259.524   2
  -5  -3  -1 5288.60 273.319   4
   5  -3  -1 5098.19 265.360   4
   5   3  -1 5092.58 258.961   8
   5  -3  -1 4807.86 208.272   1
   5   3  -1 4545.32 255.164   4
   5   3  -1 4967.42 254.664   9
  -5   3  -1 4644.29 251.614   6
  -5   3  -1 4774.16 204.892   3
  -5  -3  -1 4942.21 288.423   5
   5  -3   0 24904.4 696.760   5
  -5  -3   0 26216.9 778.457   8
   5  -3   0 28264.8 806.383   4
  -5  -3   0 27508.3 810.357   9
  -5   3   0 27758.0 768.111  10
  -5  -3   0 25739.8 674.436  10
   5  -3   0 25832.8 727.600   1
   5   3   0 25554.5 792.290   9
   5  -3   0 27539.1 797.499   9
  -5   3   0 24652.1 707.143   3
   5  -3   0 24468.4 820.250   2
   5   3   0 25258.7 798.176   4
   5   3   0 28010.1 788.015   8
   5  -3   0 27732.5 772.313  10
   5   3   0 27705.3 720.793   1
  -5   3   0 25710.5 798.490   6
  -5  -3   0 27990.1 871.181   5
  -5  -3   1 5182.44 261.043   9
  -5  -3   1 4967.14 196.151  10
   5   3   1 5087.65 208.998   1
  -5  -3   1 4828.61 258.324   4
   5   3   1 4965.85 264.182   9
   5  -3   1 5238.37 254.703   9
   5  -3   1 5119.51 247.381  10
   5   3   1 4877.69 181.565  10
   5  -3   1 5273.81 260.343   4
   5  -3   1 5047.44 289.807   2
   5   3   1 4403.21 253.464   4
  -5  -3   1 4834.06 257.050   8
   5   3   1 4878.82 237.651   8
  -5   3   1 4617.13 257.130   6
  -5   3   1 5286.15 212.892   5
   5  -3   1 4415.02 217.811   1
  -5  -3   1 4938.26 298.267   5
   5  -3   1 5159.64 212.464   5
  -5   3   1 4677.43 233.251  10
  -5  -3   2 10869.7 362.671  10
   5  -3   2 10683.7 463.221   2
  -5  -3   2 11368.1 415.772   9
  -5   3   2 11202.1 406.513  10
   5   3   2 10119.7 427.167   9
   5  -3   2 10844.5 400.103   9
  -5  -3   2 11874.6 439.761   4
   5   3   2 10705.3 341.761  10
   5   3   2 10762.5 382.732   8
   5  -3   2 10902.0 412.171   4
   5  -3   2 10704.7 410.158  10
  -5   3   2 10391.2 427.725   6
  -5   3   2 11373.4 440.197   2
   5  -3   2 10774.2 394.712   1
   5   3   2 10707.4 431.964   4
   5   3   2 10721.1 358.658   1
  -5  -3   2 10491.6 427.639   8
   5  -3   2 10346.8 363.945   5
  -5  -3   2 10504.8 469.849   5
   5   3   2 11045.6 469.324   5
  -5   3   2 10523.5 361.935   5
  -5   3   3 698.284 96.2637  10
  -5  -3   3 919.749 107.169   4
   5  -3   3 819.583 99.0913  10
  -5  -3   3 686.197 105.804   5
   5   3   3 766.324 105.878   9
   5   3   3 765.238 80.8447   1
   5  -3   3 770.151 91.9285   9
   5   3   3 822.083 81.1485   8
  -5  -3   3 781.886 107.535   8
  -5  -3   3 785.742 92.7091   9
   5   3   3 717.701 76.8375  10
  -5  -3   3 773.430 93.6640  10
   5   3   3 841.135 113.547   4
   5  -3   3 757.807 93.9547   4
  -5   3   3 585.165 94.6697   6
   5  -3   3 938.371 89.9087   5
  -5   3   3 787.309 81.1670   5
  -5   3   4 5492.66 282.450  10
  -5  -3   4 5196.18 296.293   8
   5   3   4 5464.37 302.192   9
   5  -3   4 5121.04 240.724   9
  -5  -3   4 5930.04 287.560   4
   5  -3   4 5681.51 261.260   3
   5  -3   4 5226.01 256.956   4
   5   3   4 5142.71 296.019   4
  -5  -3   4 4909.20 245.370   9
   5  -3   4 5748.15 254.291   5
   5   3   4 5463.43 256.701  10
   5   3   4 5693.31 257.003   1
   5  -3   4 6188.80 305.555   1
  -5   3   4 5577.60 294.974   6
   5  -3   4 5244.91 283.925  10
  -5  -3   4 5400.77 314.291   5
   5  -3   5 1537.95 138.956   3
   5  -3   5 1428.70 118.553   4
   5  -3   5 1617.67 155.233  10
  -5  -3   5 1324.84 159.786   5
  -5  -3   5 1486.37 137.058   4
   5   3   5 933.625 127.662   9
   5   3   5 1238.84 124.191   1
  -5  -3   5 1377.45 153.765   8
   5  -3   5 1438.72 153.716   1
  -5   3   5 1297.17 151.113  10
   5  -3   5 1272.32 108.372   9
  -5   3   5 1291.52 119.549   5
   5   3   5 1206.38 143.436   4
  -5   3   5 1371.36 141.973   6
  -5   3   5 1354.55 118.041   3
   5   3   6 6880.02 337.520  10
   5  -3   6 6451.44 249.706   9
   5   3   6 5767.28 343.548   9
  -5   3   6 6445.40 306.106   5
   5  -3   6 5681.78 249.378   4
  -5  -3   6 6448.92 350.410   8
   5   3   6 6371.24 340.897   4
  -5   3   6 6125.32 293.165   3
  -5   3   6 6099.62 320.158   6
  -5  -3   6 5964.20 348.002   5
   5  -3   6 6822.86 319.983   3
   5   3   7 3232.13 255.917   9
  -5  -3   7 2989.95 239.757   8
  -5   3   7 2875.57 213.440   6
  -5   3   7 2894.96 203.657   3
  -5  -3   7 3191.59 253.950   5
   5   3   7 3268.58 232.767   4
   5  -3   7 3048.00 219.631   3
  -5  -3   8 9429.54 467.355   8
  -5  -3   8 9780.60 484.760   3
   5   3   8 9331.37 477.605   9
   5   3   8 9385.22 397.902   6
   5   3   8 9762.96 477.223   3
  -5   3   8 9349.01 425.128   6
  -5   3   8 9497.09 426.782   3
  -5  -3   8 9714.82 490.720   5
   5  -3   8 9031.70 429.155   3
  -5  -3   9 1448.87 189.517   5
  -5   3   9 1237.69 149.994   3
   5   3   9 1327.99 169.969   3
   5  -3   9 1414.90 168.108   3
   5   3   9 1714.07 196.142   9
  -5  -3   9 1554.04 194.896   3
   5  -3   9 948.432 160.207   8
  -5   3   9 1549.78 161.263   6
  -5  -3   9 1317.48 172.312   8
  -5  -3  10 4059.30 328.445   3
   5   3  10 4394.06 318.748   9
  -5  -3  10 4723.64 332.137   8
   5  -3  10 4616.96 344.263   8
   5   3  10 4262.82 323.955   3
  -5   3  10 4333.88 274.814   6
  -5   3  10 4688.70 313.866   3
  -5  -3  10 4436.51 348.796   5
   5  -3  10 4545.36 316.965   3
  -5   3  11 1308.83 178.131   3
  -5  -3  11 1036.50 164.271   8
   5  -3  11 778.620 148.782   8
  -5   4 -10 698.315 138.032   1
   5  -4 -10 851.195 153.720   2
   5   4 -10 593.509 130.573   1
  -5   4  -9 97.5687 70.4187   1
   5  -4  -9 174.464 79.7759   2
   5  -4  -9 154.839 75.5429   1
   5   4  -9 162.950 96.7098   1
   5  -4  -8 839.219 145.331   2
  -5   4  -8 1360.15 178.393   1
   5   4  -8 925.934 127.722   4
  -5  -4  -8 1048.78 167.748   5
  -5  -4  -8 921.168 121.666   1
   5  -4  -8 1052.08 140.813   1
   5   4  -8 883.804 150.327   1
  -5  -4  -7 61.1217 36.8186   1
  -5  -4  -7 225.557 94.9464   5
   5   4  -7 178.579 76.0638   4
  -5   4  -7 90.7041 41.8256   7
   5  -4  -7 156.869 76.5929   2
   5   4  -7 177.804 84.2686   1
  -5   4  -7 36.5734 54.0394   1
  -5   4  -7 68.2287 37.5122   6
   5   4  -7 61.7503 38.4511   9
   5  -4  -6 12.6855 55.4096   2
   5   4  -6 67.4999 38.9206   9
  -5  -4  -6 97.4740 68.4297   5
  -5   4  -6 51.6494 50.9058   1
   5   4  -6 15.2397 46.7240   4
  -5   4  -6 111.887 42.9437   7
  -5  -4  -6 19.6307 29.9889   1
  -5   4  -6 43.5254 45.1885   6
  -5  -4  -5 366.125 59.5311   1
   5  -4  -5 399.440 97.6179   2
  -5  -4  -5 411.642 50.8077   2
  -5  -4  -5 513.573 115.980   5
  -5   4  -5 406.573 76.9415   7
  -5  -4  -5 575.442 68.4383   8
   5   4  -5 532.093 102.320   4
   5   4  -5 410.696 76.8155   9
  -5   4  -5 481.009 91.2858   1
  -5   4  -5 397.695 82.1490   6
  -5  -4  -4 2310.51 220.651   5
   5   4  -4 2443.84 185.582   9
  -5   4  -4 2531.65 186.540   1
   5  -4  -4 2479.32 217.376   2
  -5  -4  -4 2627.09 139.698   2
  -5   4  -4 2305.60 193.824   6
  -5   4  -4 2409.93 183.591   7
   5   4  -4 2567.94 207.203   4
  -5  -4  -3 588.914 68.8580   2
   5  -4  -3 740.219 121.936   2
  -5   4  -3 736.210 91.2019   3
  -5  -4  -3 476.218 100.479   5
   5  -4  -3 788.066 95.8822   5
  -5  -4  -3 715.103 88.8363   8
   5   4  -3 441.145 88.0754   9
   5   4  -3 726.336 57.3999   7
  -5   4  -3 682.517 93.4646   1
   5   4  -3 708.999 109.687   4
  -5   4  -3 786.806 113.948   6
  -5  -4  -2 1831.68 130.628   2
   5  -4  -2 1550.99 128.160   5
  -5  -4  -2 1711.37 184.661   5
   5  -4  -2 1703.14 111.169   1
  -5  -4  -2 1846.48 152.234   8
   5  -4  -2 1655.28 174.931   2
   5   4  -2 1908.78 177.432   4
   5   4  -2 1602.92 154.806   9
   5   4  -2 1764.71 115.009   7
  -5   4  -2 1611.45 163.563   6
  -5   4  -2 1537.59 132.806   3
  -5  -4  -1 264.212 78.2812   5
   5  -4  -1 205.695 50.1059   5
  -5  -4  -1 233.860 70.3486   8
   5   4  -1 259.769 73.6188   4
   5  -4  -1 308.148 47.5773   1
   5   4  -1 217.122 44.7147   1
  -5   4  -1 244.269 73.0628   6
   5   4  -1 339.325 80.1854   9
   5  -4  -1 254.859 83.2129   2
  -5   4   0 693.066 81.0219  10
   5  -4   0 553.154 73.9744   5
   5   4   0 651.473 58.1820   1
   5   4   0 643.109 105.252   9
  -5  -4   0 322.627 76.9928   8
   5  -4   0 523.440 63.1301   1
   5   4   0 529.287 103.177   4
  -5  -4   0 520.068 100.871   5
  -5   4   0 533.503 98.5801   6
   5  -4   0 674.897 114.132   2
   5   4   1 231.383 70.2639   9
  -5   4   1 293.593 54.9058  10
   5  -4   1 243.197 57.1254  10
  -5  -4   1 180.083 65.4838   5
   5  -4   1 219.269 56.9763   5
  -5   4   1 149.390 61.9537   9
   5   4   1 272.539 36.8298   1
  -5  -4   1 294.699 84.9681   8
   5  -4   1 179.469 43.7373   1
   5   4   1 272.493 80.8171   4
  -5   4   1 308.718 76.1491   6
  -5   4   1 211.627 49.1973   5
   5  -4   1 260.982 79.6620   2
   5   4   2 1315.61 157.717   9
   5  -4   2 1390.28 163.437   2
  -5   4   2 1868.31 180.779   9
  -5  -4   2 1662.10 93.7130  10
   5  -4   2 1805.34 142.818  10
   5   4   2 1587.01 169.967   4
   5   4   2 1732.45 96.1998   1
  -5  -4   2 1629.70 188.088   5
   5  -4   2 1527.02 123.202   1
  -5   4   2 1576.70 129.917  10
  -5   4   2 1736.38 178.620   6
  -5  -4   2 1519.85 165.147   8
   5  -4   2 1703.70 138.952   5
   5   4   3 706.794 61.7500  10
   5  -4   3 825.932 108.300   9
   5  -4   3 732.409 97.9872  10
   5  -4   3 648.560 94.9083   5
  -5   4   3 676.045 90.8285   5
  -5   4   3 682.204 89.6203  10
  -5   4   3 635.387 113.049   9
   5   4   3 766.532 72.5183   1
  -5  -4   3 680.793 119.113   8
  -5  -4   3 582.427 69.7721  10
   5   4   3 738.264 118.853   9
   5   4   3 549.749 106.111   4
  -5  -4   3 574.432 118.962   5
  -5   4   3 650.788 109.780   6
  -5   4   4 2397.59 179.591  10
   5   4   4 2057.13 206.042   9
   5  -4   4 2107.91 170.507  10
   5  -4   4 2292.90 177.425   9
  -5   4   4 2592.95 220.092   6
   5  -4   4 2235.20 178.633   4
  -5  -4   4 2262.12 212.874   8
   5   4   4 2429.07 218.219   4
   5  -4   4 2650.62 192.936   1
  -5  -4   4 2313.63 160.212  10
   5   4   4 2356.82 139.417  10
   5  -4   4 2325.80 178.177   5
  -5  -4   4 2520.21 233.011   5
  -5   4   4 2507.64 179.031   5
  -5   4   5 494.441 91.8383  10
  -5  -4   5 394.258 75.4179   9
   5  -4   5 365.260 70.7478   9
  -5  -4   5 634.245 131.066   8
  -5  -4   5 472.950 109.900   5
   5  -4   5 340.398 69.8114   4
   5  -4   5 411.415 87.2876   5
   5   4   5 170.328 62.9870   4
  -5   4   5 515.440 113.299   6
   5   4   5 325.162 97.9094   9
   5  -4   6 23.3279 53.6702   5
  -5  -4   6 115.225 71.8908   5
   5   4   6 193.211 93.9940   9
  -5   4   6 93.1387 46.2444   3
  -5  -4   6-39.6687 63.1864   8
  -5   4   6 66.3396 63.8322  10
   5   4   6 124.269 76.1440   4
  -5   4   6 212.987 70.6042   6
  -5   4   7 89.1215 50.7197   3
  -5   4   7 131.258 82.1790  10
  -5  -4   7 108.050 76.4468   5
   5   4   7 33.6905 59.8222   9
  -5  -4   7 66.9323 69.7924   8
   5  -4   7 165.314 75.8365   5
   5   4   7 53.0436 53.2864   4
  -5   4   7 38.3110 63.3179   6
  -5  -4   8 956.082 169.543   5
  -5   4   8 836.847 125.235   3
   5  -4   8 717.986 123.843   3
   5   4   8 841.098 148.071   9
   5  -4   8 750.158 125.062   5
  -5  -4   8 1220.11 182.273   8
   5   4   8 942.243 133.171   6
  -5   4   8 992.857 145.187   6
  -5   4   9 154.980 73.0911   3
  -5  -4   9 207.109 103.627   5
   5  -4   9 127.484 73.7494   3
   5   4   9-45.2182 71.1048   9
  -5  -4   9 220.548 96.4248   8
   5  -4   9 232.612 110.298   8
   5   4   9 177.965 78.7434   3
  -5   4   9 155.497 71.2048   6
   5  -4   9 106.562 68.8684   5
   5  -4  10 623.731 139.573   3
   5   4  10 1098.70 182.736   9
   5  -4  10 770.308 159.524   8
  -5   4  10 858.597 142.083   3
  -5   4  10 726.209 129.209   6
   5  -5  -9 159.248 82.6894   2
   5  -5  -8 272.639 111.008   2
  -5   5  -8 412.004 108.217   1
   5  -5  -7 841.534 151.482   2
  -5  -5  -7 563.367 141.734   5
   5   5  -7 653.602 127.534   4
  -5   5  -7 706.842 121.645   1
   5   5  -7 783.347 124.972   1
   5  -5  -6 893.239 154.004   2
  -5   5  -6 1108.35 141.683   1
  -5  -5  -6 892.702 157.311   5
   5   5  -6 1092.56 134.212   9
   5   5  -6 917.025 148.051   4
  -5   5  -6 837.833 127.138   6
   5   5  -6 1070.04 138.012   1
   5  -5  -5 201.819 87.7646   2
  -5  -5  -5 94.6997 67.2608   5
   5   5  -5 183.534 71.7537   9
  -5   5  -5 71.7680 46.0807   7
   5   5  -5 55.9379 56.0054   4
  -5   5  -5 85.0563 65.8217   6
  -5   5  -5 53.8827 42.0499   1
   5   5  -5 145.669 62.3563   1
  -5  -5  -4 2799.41 267.620   5
   5   5  -4 3064.02 241.241   9
   5   5  -4 3033.34 261.450   4
   5  -5  -4 2936.48 261.280   2
   5  -5  -4 2778.74 214.748   5
   5   5  -4 3181.25 196.124   1
  -5   5  -4 2530.00 206.361   7
  -5  -5  -4 3280.75 212.668   8
  -5   5  -4 3023.99 245.192   6
  -5   5  -4 3332.34 204.230   1
  -5  -5  -3 304.957 58.2394   2
   5  -5  -3 261.633 80.7894   2
  -5  -5  -3 247.208 84.3126   5
   5   5  -3 476.937 107.777   9
  -5  -5  -3 126.916 53.7499   8
   5   5  -3 316.294 89.1753   4
   5  -5  -3 279.000 75.5086   5
  -5   5  -3 308.315 84.2635   6
   5   5  -3 448.691 70.9612   1
  -5  -5  -2 2082.16 164.570   2
   5   5  -2 2039.75 204.888   9
  -5  -5  -2 1772.75 172.701   8
   5  -5  -2 1880.68 202.050   2
   5   5  -2 2174.26 221.178   4
  -5  -5  -2 1957.62 216.227   5
  -5   5  -2 1844.87 198.940   6
   5  -5  -2 1751.17 159.094   5
  -5  -5  -1 1536.56 183.358   5
  -5  -5  -1 1406.72 142.959   2
   5  -5  -1 1571.05 187.861   2
  -5  -5  -1 1123.91 142.657   8
   5  -5  -1 1396.71 135.527   5
   5   5  -1 1291.77 173.244   4
  -5   5  -1 1293.17 171.823   6
   5   5  -1 1153.00 159.203   9
   5   5   0 5935.73 370.412   9
   5  -5   0 5358.37 356.718   2
  -5  -5   0 5488.03 336.817   8
   5   5   0 6692.67 396.596   4
  -5   5   0 6089.08 373.746   6
   5  -5   0 5812.03 294.334   5
  -5  -5   0 6420.51 392.306   5
   5   5   1 1148.66 168.067   9
  -5  -5   1 1270.00 170.088   8
  -5   5   1 1543.20 181.970   9
   5   5   1 1202.78 172.499   4
  -5   5   1 1198.01 164.502   6
   5  -5   1 1276.84 169.360   2
  -5  -5   1 1637.32 190.806   5
   5  -5   1 1566.18 142.873   5
   5   5   2 2003.71 216.759   9
   5  -5   2 2074.60 219.302   2
  -5   5   2 1528.20 186.244   9
  -5  -5   2 1646.56 193.264   8
   5   5   2 1861.00 207.379   4
  -5   5   2 1998.55 215.162   6
  -5   5   2 2129.16 140.763  10
  -5  -5   2 2122.28 227.764   5
   5  -5   2 1959.95 166.800   5
  -5   5   3 132.977 69.2661   6
   5  -5   3 143.211 58.8688   5
   5   5   3 102.361 58.8287   9
  -5   5   3 36.7486 66.3613   9
  -5  -5   3 166.638 94.6025   8
  -5  -5   3 283.927 102.725   5
   5   5   3 299.207 102.287   4
  -5   5   3 140.793 47.7684  10
   5  -5   3 103.036 71.2262   2
   5   5   4 3812.50 310.839   9
  -5   5   4 3000.05 277.085   9
  -5   5   4 3506.96 215.320  10
  -5  -5   4 3224.96 287.467   8
   5   5   4 3435.52 282.192   4
  -5   5   4 3832.54 304.387   6
   5  -5   4 3439.56 249.331   5
  -5  -5   4 3046.26 292.321   5
   5  -5   5 152.344 74.4618   5
  -5  -5   5 55.7858 73.2530   5
   5   5   5 99.4570 73.4051   9
  -5  -5   5 75.5251 90.1058   8
   5   5   5 68.0439 57.2522   4
  -5   5   5 33.1815 64.9517   6
  -5  -5   6 1133.33 186.503   5
   5   5   6 969.954 161.663   9
   5  -5   6 930.171 139.373   5
  -5  -5   6 859.123 175.294   8
   5   5   6 925.046 158.488   4
  -5   5   6 954.095 135.017   3
  -5   5   6 998.206 161.438   6
  -5   5   7 700.869 116.300   3
  -5  -5   7 967.560 184.892   8
   5  -5   7 1153.47 193.537   8
   5   5   7 1016.97 173.813   9
   5   5   7 934.640 149.463   6
   5   5   7 1018.39 165.902   4
  -5   5   7 886.896 159.392   6
  -5  -5   7 631.718 147.989   5
   5  -5   7 787.675 139.820   5
  -5   5   8 455.126 108.838   3
   5  -5   8 729.425 129.145   5
   5   5   8 750.078 132.516   6
  -5   5   8 287.374 86.2597   6
   5   6  -6 4988.97 371.403   4
   5  -6  -6 4302.09 360.151   2
  -5   6  -6 4722.06 336.179   6
   5   6  -5 201.765 107.741   4
  -5   6  -5 219.490 89.4070   6
   5  -6  -5 313.955 111.694   2
   5   6  -4 3718.93 289.153   9
   5   6  -4 3861.66 327.990   4
   5  -6  -4 3266.57 301.239   2
  -5  -6  -4 3909.48 346.263   5
  -5   6  -4 3947.28 312.117   6
   5  -6  -3 1623.69 207.788   2
   5   6  -3 1638.71 202.750   9
  -5  -6  -3 1623.37 214.053   5
   5   6  -3 1778.46 220.421   4
  -5   6  -3 2031.47 223.861   6
  -5  -6  -2 3718.13 322.652   5
  -5  -6  -2 3359.23 271.669   8
   5   6  -2 3923.92 317.319   9
   5  -6  -2 3860.51 316.767   2
   5   6  -2 3874.92 330.803   4
  -5   6  -2 4787.60 347.817   6
   5  -6  -2 4283.85 276.235   5
  -5  -6  -1 1074.53 171.895   5
   5  -6  -1 1119.77 137.856   5
   5   6  -1 755.457 143.806   9
  -5  -6  -1 1003.60 155.708   8
   5   6  -1 1145.73 183.623   4
  -5   6  -1 1225.22 178.545   6
  -5  -6  -1 1118.03 136.021   2
   5  -6  -1 1050.43 166.219   2
   5  -6   0 5351.73 300.486   5
   5   6   0 4704.78 358.934   9
  -5  -6   0 4931.88 309.089   2
   5  -6   0 4942.11 359.482   2
  -5  -6   0 4472.03 330.036   8
   5   6   0 5135.30 380.686   4
  -5   6   0 4997.53 365.905   6
  -5  -6   0 5220.61 370.693   5
  -5  -6   1 791.310 149.454   5
   5  -6   1 872.680 117.913   5
   5   6   1 1080.78 174.122   9
  -5  -6   1 762.955 148.127   8
   5   6   1 1170.18 181.517   4
  -5   6   1 987.464 170.117   6
   5  -6   1 955.260 162.348   2
   5   6   2 5028.55 372.621   4
   5   6   2 4247.99 350.077   9
   5  -6   2 4043.37 333.417   2
  -5  -6   2 4852.40 358.848   8
  -5   6   2 4556.68 356.294   6
  -5  -6   2 4747.92 359.688   5
   5  -6   2 4274.60 271.389   5
   5   6   3 2247.39 253.126   9
  -5  -6   3 1985.81 238.715   8
   5   6   3 1688.50 224.079   4
  -5   6   3 2469.74 260.529   6
   5  -6   3 1869.61 232.288   2
  -5  -6   3 2182.18 251.400   5
   5   6   4 3915.55 331.608   4
  -5  -6   4 4189.58 361.830   5
  -6   0 -11 3228.59 335.252   1
  -6   0 -10 9276.21 551.158   1
   6   0 -10 8447.75 378.432   4
  -6   0  -9 11599.5 608.201   1
   6   0  -9 11809.8 457.256   4
  -6   0  -8 11400.7 568.009   1
   6   0  -8 10905.7 402.343   9
   6   0  -8 11122.6 426.003   8
   6   0  -8 10920.0 414.831   6
   6   0  -7 13507.9 471.290   8
   6   0  -7 13928.5 469.649   6
   6   0  -7 12425.8 512.573   2
  -6   0  -7 12723.9 587.035   1
  -6   0  -6 27192.6 961.307   1
   6   0  -6 28694.9 838.108   8
   6   0  -6 30594.1 846.650   6
   6   0  -6 31143.3 858.190   3
   6   0  -6 29154.2 894.554   2
  -6   0  -5 21656.2 771.681   1
   6   0  -5 22011.8 664.239   8
   6   0  -5 23528.8 675.261   6
   6   0  -5 22440.5 705.433   2
   6   0  -5 23283.8 664.522   3
  -6   0  -4 26796.8 877.476   1
   6   0  -4 29285.6 801.836   8
   6   0  -4 28084.4 819.896   2
   6   0  -4 29283.3 772.033   3
   6   0  -3 8006.89 300.786   8
  -6   0  -3 7773.35 346.864   1
  -6   0  -3 7703.12 302.135   7
   6   0  -3 7704.51 303.332   2
   6   0  -3 7741.58 262.474   3
  -6   0  -2 16816.3 573.518  10
  -6   0  -2 17123.3 478.415   5
   6   0  -2 18236.6 526.861   8
  -6   0  -2 17069.0 519.383   7
  -6   0  -2 16538.4 562.674   1
   6   0  -2 18395.5 522.021   2
   6   0  -2 16985.0 460.931   3
   6   0  -1 15554.4 452.133   2
  -6   0  -1 15990.0 430.728   2
   6   0  -1 15275.6 470.035   8
  -6   0  -1 15269.1 463.295   7
  -6   0  -1 14591.6 513.548  10
  -6   0  -1 14852.8 413.709   5
   6   0  -1 15206.4 400.334   3
  -6   0   0 21834.6 709.717  10
   6   0   0 23768.1 665.185   8
  -6   0   0 22875.4 623.936   2
   6   0   0 24161.0 629.667   2
  -6   0   0 23792.0 653.065   7
   6   0   0 24516.9 623.480   5
  -6   0   0 25159.2 621.556   5
  -6   0   1 11634.0 432.861  10
   6   0   1 11965.2 342.112   2
  -6   0   1 12068.9 370.075   2
  -6   0   1 12001.8 370.365   7
   6   0   1 12048.7 363.811   6
  -6   0   1 10644.2 355.759   5
   6   0   1 12560.4 365.021   5
   6   0   2 18945.3 518.928   5
  -6   0   2 18648.3 608.362  10
   6   0   2 18674.3 526.474   4
   6   0   2 18516.7 491.991   2
   6   0   2 18849.8 544.473   9
  -6   0   2 19153.1 549.924   2
   6   0   2 18023.4 511.393   6
  -6   0   2 19286.5 522.030   5
   6   0   3 6957.49 240.760   4
   6   0   3 6805.80 260.324   9
  -6   0   3 6730.17 273.870   8
   6   0   3 7051.98 235.273   2
   6   0   3 6980.55 257.280   5
  -6   0   3 7346.17 331.986  10
   6   0   3 7090.83 254.689   3
   6   0   3 6514.28 228.670   6
  -6   0   3 6975.09 244.884   3
   6   0   4 25289.9 714.116   5
  -6   0   4 26224.9 731.586   8
   6   0   4 24792.4 693.572   9
   6   0   4 24710.7 653.898   4
   6   0   4 26205.9 714.983   3
   6   0   4 25936.5 650.674   6
  -6   0   4 25019.7 695.549   3
   6   0   5 23792.1 699.112   5
   6   0   5 22783.4 649.554   9
   6   0   5 23554.0 602.975   4
  -6   0   5 24071.8 695.947   8
   6   0   5 24521.7 716.420   7
   6   0   5 23853.7 593.700   6
   6   0   5 22731.7 691.224   3
  -6   0   5 23159.6 678.008   3
   6   0   6 28916.6 756.356   9
  -6   0   6 29395.7 806.881   8
   6   0   6 27298.8 690.515   4
   6   0   6 29801.3 836.671   7
   6   0   6 29848.2 836.392   5
   6   0   6 26292.4 655.184   6
   6   0   6 29418.7 829.796   3
  -6   0   6 27528.7 801.175   3
  -6   0   7 12721.5 447.843   8
   6   0   7 12818.3 407.633   9
   6   0   7 12087.3 471.720   3
   6   0   7 11902.7 408.224   2
  -6   0   7 11807.7 455.616   3
   6   0   8 11459.5 388.534   9
  -6   0   8 10879.3 416.961   8
   6   0   8 10762.2 394.422   2
   6   0   8 10676.4 460.765   3
  -6   0   8 10501.3 441.438   3
   6   0   9 12940.4 420.166   9
  -6   0   9 12623.2 472.022   8
   6   0   9 12927.4 539.661   3
  -6   0   9 12341.5 515.572   3
  -6   0  10 8817.19 376.183   8
   6   0  10 8770.67 446.537   3
  -6   0  10 8405.52 426.042   3
   6   0  11 2453.39 232.595   3
  -6   0  11 2038.41 207.799   3
  -6   0  12 3558.95 294.536   3
  -6   1 -11 1910.19 259.541   1
  -6  -1 -11 1310.92 216.258   1
  -6   1 -10 4442.73 375.913   1
   6   1 -10 3672.79 226.383   4
   6  -1 -10 4239.28 303.041   2
  -6  -1 -10 4091.93 348.850   1
  -6   1  -9 2043.28 244.363   1
   6   1  -9 1844.73 126.684   9
  -6  -1  -9 1912.01 228.652   1
   6  -1  -9 1962.57 189.711   2
   6   1  -9 1778.96 150.783   4
  -6  -1  -8 7134.18 430.219   1
  -6  -1  -8 7155.39 304.999   9
   6   1  -8 7438.61 289.831   9
   6  -1  -8 7701.51 349.305   9
  -6   1  -8 8383.12 473.789   1
   6   1  -8 7431.09 329.460   4
   6  -1  -8 7762.42 314.993   8
   6   1  -8 7446.67 322.948   6
   6  -1  -8 7518.07 384.388   2
  -6   1  -7 6570.64 400.387   1
  -6  -1  -7 6817.97 292.260   9
  -6  -1  -7 6927.80 244.806   4
   6   1  -7 6618.65 303.496   4
  -6  -1  -7 6848.84 396.092   1
   6  -1  -7 7019.85 288.442   8
   6   1  -7 6816.67 275.211   9
   6  -1  -7 7043.51 319.096   9
   6  -1  -7 7140.43 313.524   6
   6  -1  -7 6896.90 349.924   2
   6   1  -7 7438.80 311.273   6
   6   1  -6 3934.53 195.652   9
  -6  -1  -6 4578.59 295.192   1
   6  -1  -6 4334.36 232.079   9
  -6  -1  -6 4271.29 181.720   4
  -6   1  -6 4132.67 295.314   1
   6  -1  -6 4237.47 208.573   8
   6   1  -6 4840.04 250.382   8
   6  -1  -6 4568.76 232.858   6
   6  -1  -6 4090.76 247.681   2
   6   1  -6 4831.06 233.387   6
   6   1  -6 4104.07 231.042   3
   6   1  -6 4082.93 221.178   4
   6   1  -5 27662.0 769.683   9
  -6   1  -5 28326.9 919.747   1
  -6  -1  -5 29178.1 901.911   1
   6  -1  -5 27690.2 778.006   8
   6  -1  -5 28240.5 810.264   9
  -6  -1  -5 27441.0 745.460   4
   6   1  -5 28690.3 825.605   8
  -6  -1  -5 25985.0 814.942   5
   6   1  -5 25673.0 791.453   4
  -6   1  -5 26720.8 802.798   7
   6  -1  -5 28842.2 842.244   2
   6  -1  -5 30281.8 818.977   6
   6   1  -5 29294.2 802.885   6
   6   1  -5 29499.0 815.912   3
   6  -1  -4 13636.3 450.344   8
   6   1  -4 13997.4 448.322   9
  -6   1  -4 14317.6 548.352   1
   6   1  -4 13854.9 467.821   4
  -6  -1  -4 14946.6 536.273   1
   6   1  -4 14444.6 482.587   8
  -6  -1  -4 14241.7 477.688   5
  -6   1  -4 12972.2 460.829   7
   6  -1  -4 14024.3 489.242   2
   6  -1  -4 15102.9 481.482   6
  -6   1  -4 14971.4 405.494   6
  -6  -1  -4 13849.5 430.025   4
   6   1  -4 14470.4 460.584   3
  -6  -1  -3 10593.2 377.487   5
   6   1  -3 10797.4 366.695   9
  -6  -1  -3 10995.1 357.185   4
   6   1  -3 10555.7 379.830   4
  -6   1  -3 10784.4 336.500   6
   6  -1  -3 10989.9 373.944   8
   6   1  -3 11204.9 392.229   8
  -6  -1  -3 11289.0 424.658   1
   6  -1  -3 10795.4 390.788   2
  -6   1  -3 10324.1 375.077   7
   6   1  -3 11118.4 382.861   2
   6   1  -3 11031.6 367.131   3
  -6   1  -3 10359.0 431.002   1
   6   1  -2 21601.9 624.117   8
  -6   1  -2 21038.7 674.827  10
  -6  -1  -2 22193.4 657.082  10
   6   1  -2 20967.5 608.689   9
  -6  -1  -2 22479.9 606.429   4
   6  -1  -2 20770.3 617.014   2
  -6   1  -2 20202.0 611.510   7
  -6   1  -2 20045.7 656.845   1
  -6  -1  -2 21102.1 642.653   1
  -6   1  -2 21070.5 581.474   6
   6   1  -2 20581.9 594.190   2
  -6  -1  -2 21022.7 608.305   5
   6   1  -2 20336.1 615.248   4
   6   1  -2 21173.6 594.800   3
  -6  -1  -1 36982.2 948.256   5
   6   1  -1 35247.3 944.523   9
  -6  -1  -1 35684.7 979.797  10
  -6  -1  -1 36122.0 939.890   4
   6   1  -1 35737.1 951.720   4
  -6  -1  -1 35869.7 934.029   8
   6   1  -1 36859.2 950.101   8
  -6  -1  -1 35769.8 849.306   2
   6   1  -1 34293.2 895.079   7
  -6   1  -1 35374.4 942.566   7
  -6   1  -1 35612.6 1005.12  10
   6  -1  -1 35198.4 939.826   2
  -6   1  -1 35790.6 923.877   6
   6   1  -1 34557.3 900.454   2
   6   1  -1 37019.1 950.641   5
  -6   1   0 22275.8 688.791  10
   6   1   0 22929.9 630.520   8
   6  -1   0 21850.1 619.365   2
   6   1   0 23327.5 641.216   9
   6   1   0 22387.2 603.411   7
  -6  -1   0 22361.9 570.276   2
  -6  -1   0 22085.2 608.026   7
  -6   1   0 21655.0 620.482   6
  -6  -1   0 22047.1 666.860  10
   6   1   0 22392.5 633.307   4
   6   1   0 21808.6 568.664   2
   6   1   0 20959.8 649.289   5
  -6   1   0 19028.3 609.302   2
   6   1   0 23073.2 659.689  10
  -6  -1   0 22537.1 656.976   5
   6   1   1 34118.1 805.754   2
  -6   1   1 35118.9 965.108  10
   6   1   1 34588.1 937.240  10
   6   1   1 34920.3 900.011   4
   6  -1   1 32621.3 889.659   2
   6   1   1 34117.3 887.024   8
   6   1   1 29938.2 923.399   1
   6   1   1 34284.9 891.197   7
  -6  -1   1 33366.2 858.765   7
  -6  -1   1 31760.3 933.397  10
  -6  -1   1 34038.1 863.323   2
   6  -1   1 34436.9 882.797   6
  -6   1   1 34100.4 900.798   6
   6   1   1 34620.8 910.298   9
   6  -1   1 35368.7 795.052   3
  -6   1   1 33044.4 793.582   5
  -6  -1   1 31937.3 933.285   5
   6   1   1 34164.3 936.550   5
   6  -1   1 33307.1 794.165   5
  -6  -1   2 17993.1 614.026  10
   6   1   2 19523.4 620.374  10
   6   1   2 19481.5 583.841   9
   6   1   2 18423.4 617.833   1
   6  -1   2 19329.0 505.724   5
   6   1   2 18949.2 562.689   4
   6   1   2 19353.2 555.450   8
  -6  -1   2 20323.8 531.726   7
  -6  -1   2 20339.7 568.279   2
   6  -1   2 19878.1 550.899   6
   6  -1   2 20369.1 590.519   2
  -6   1   2 19291.9 582.948   6
   6  -1   2 20051.8 509.342   3
  -6  -1   2 21463.0 611.265   5
  -6   1   2 19432.6 488.269   3
  -6   1   2 19487.7 632.599  10
   6   1   2 20564.1 595.477   5
   6   1   3 10327.6 366.593   5
   6  -1   3 9485.70 309.917   5
   6   1   3 9944.07 355.440   9
   6   1   3 10002.6 334.658   4
   6   1   3 10032.1 325.928   8
   6  -1   3 10701.3 366.544   7
  -6  -1   3 10696.9 306.289   7
  -6   1   3 9950.34 407.077  10
   6  -1   3 9637.38 314.054   6
  -6   1   3 10420.4 367.149   6
   6  -1   3 9938.79 315.068   3
  -6   1   3 9705.98 296.306   3
  -6  -1   3 9889.63 366.248   5
   6   1   3 10722.9 413.625   1
  -6  -1   4 12446.5 446.003   8
   6  -1   4 12318.9 403.742   5
   6   1   4 12513.8 427.946   9
   6   1   4 12945.5 406.402   4
   6   1   4 12591.7 387.827   8
   6   1   4 13033.0 448.956   5
  -6  -1   4 13480.2 369.583   7
   6  -1   4 13877.8 448.366   7
  -6  -1   4 13272.8 442.644   3
   6  -1   4 13012.4 373.782   6
  -6  -1   4 12759.2 447.440   2
  -6   1   4 12724.6 441.160   6
   6   1   4 13448.2 505.185   1
   6  -1   4 13064.7 408.741   3
  -6   1   4 12532.2 389.785   3
   6   1   5 28574.9 816.262   5
   6   1   5 27819.5 882.282  10
   6  -1   5 26358.6 715.344   9
   6   1   5 25900.5 765.383   9
   6  -1   5 26855.7 669.145   4
   6   1   5 26360.9 709.529   8
   6   1   5 28057.5 746.564   4
  -6  -1   5 26040.3 793.153   8
  -6   1   5 29916.7 834.782   2
   6  -1   5 28875.5 796.356   7
   6   1   5 27663.0 808.598   7
   6   1   5 26379.5 655.588   2
  -6  -1   5 28351.6 816.620   2
   6  -1   5 27050.1 894.471   1
   6   1   5 29370.6 891.931   1
  -6   1   5 27308.1 787.860   6
   6  -1   5 26847.9 763.950   3
  -6   1   5 26206.7 742.737   3
   6  -1   5 29716.5 903.756  10
   6  -1   5 26556.1 765.409   5
  -6  -1   5 25891.0 786.200   3
   6  -1   6 4479.24 179.793   9
   6  -1   6 5017.59 246.870   5
   6   1   6 4676.69 231.335   9
   6   1   6 4525.32 181.604   8
   6   1   6 4744.22 215.924   4
   6  -1   6 4637.41 240.694   7
   6   1   6 4700.49 166.706   2
   6   1   6 4113.14 241.668   3
  -6   1   6 4452.73 233.940   6
   6  -1   6 4703.68 237.859   3
  -6   1   6 4428.81 223.200   3
  -6  -1   6 4455.70 241.863   8
  -6  -1   6 4566.84 248.462   3
   6   1   7 7011.54 310.439   9
   6   1   7 6847.91 235.477   8
   6   1   7 7184.37 264.448   4
   6  -1   7 7054.55 234.475   9
   6   1   7 6715.80 238.839   2
   6   1   7 6688.02 332.542   3
  -6  -1   7 6867.64 320.675   8
  -6   1   7 6518.69 301.570   6
   6   1   7 6707.08 212.425   6
   6  -1   7 6632.45 316.253   3
  -6   1   7 6384.25 300.160   3
  -6  -1   7 6451.34 324.454   3
   6  -1   8 7306.76 231.909   9
   6   1   8 7942.21 350.302   9
   6   1   8 7318.65 238.529   8
  -6  -1   8 7237.61 341.970   8
   6   1   8 7766.79 276.681   2
   6   1   8 6895.53 359.549   3
  -6   1   8 7131.68 323.689   6
   6  -1   8 6664.64 343.438   3
  -6   1   8 6339.79 323.926   3
  -6  -1   8 6723.71 351.659   3
   6   1   9 2229.09 182.640   9
   6   1   9 2369.91 209.869   3
   6  -1   9 2318.85 201.600   3
  -6   1   9 2334.86 193.253   3
  -6  -1   9 2235.55 183.951   8
  -6  -1   9 2261.25 202.054   3
  -6  -1  10 4191.08 260.720   8
   6  -1  10 3894.29 254.659   8
   6   1  10 3845.62 287.738   3
   6  -1  10 4114.81 287.237   3
  -6   1  10 3429.33 254.724   3
  -6  -1  10 3725.10 276.769   3
   6   1  11 1587.57 187.301   3
  -6  -1  11 1511.38 157.685   8
  -6  -1  11 1425.47 177.725   3
   6  -1  11 1698.92 195.377   3
  -6   1  11 1541.50 176.405   3
  -6   1  12 945.660 150.684   3
  -6  -2 -11 99.7587 67.7213   1
   6  -2 -11 180.563 87.3013   2
   6  -2 -11 280.573 125.202   1
   6   2 -11 219.829 120.025   1
  -6   2 -11 81.2082 102.876   1
  -6  -2 -10-36.0950 61.6326   1
   6  -2 -10 107.172 71.4009   2
  -6   2 -10 129.007 78.1452   1
  -6   2  -9 443.367 133.125   1
  -6  -2  -9 417.120 113.021   1
   6  -2  -9 397.971 97.3913   2
   6   2  -9 402.089 76.0346   4
  -6   2  -8 1197.39 171.575   1
   6  -2  -8 1057.03 142.744   2
   6   2  -8 1036.01 90.1057   9
  -6  -2  -8 921.319 148.583   1
   6   2  -8 875.780 105.992   4
  -6  -2  -7 126.351 55.4224   1
  -6   2  -7-11.4716 71.6902   1
   6   2  -7 113.569 39.5304   9
   6  -2  -7 157.806 61.7099   2
   6  -2  -7 82.2173 32.5548   8
  -6  -2  -7 67.0035 27.4171   4
   6   2  -7 111.398 45.0607   4
  -6   2  -7 102.910 22.2907   6
  -6  -2  -6 4151.43 259.500   5
  -6   2  -6 4221.99 292.655   1
  -6  -2  -6 4207.53 241.611   9
  -6  -2  -6 4398.91 275.697   1
  -6  -2  -6 4032.27 210.406   4
   6   2  -6 4081.02 230.361   4
   6  -2  -6 4330.69 208.654   8
  -6   2  -6 4187.72 231.547   7
   6   2  -6 4031.86 202.231   9
   6  -2  -6 4150.02 254.609   2
  -6   2  -6 4506.95 237.523   3
  -6   2  -6 4523.40 175.659   6
  -6  -2  -5 3144.53 196.631   9
   6   2  -5 2987.46 169.496   9
  -6   2  -5 3044.68 230.702   1
  -6  -2  -5 3043.18 211.069   5
   6  -2  -5 2784.03 193.976   9
  -6  -2  -5 3276.98 219.082   1
   6   2  -5 2804.40 183.745   4
   6  -2  -5 2743.96 162.756   8
  -6   2  -5 3052.95 186.093   7
   6  -2  -5 3040.29 204.850   2
   6  -2  -5 3263.92 204.417   6
  -6   2  -5 3187.62 151.461   6
  -6   2  -5 2966.14 173.495   3
   6   2  -4 659.145 87.2762   3
   6   2  -4 564.513 72.1179   9
  -6  -2  -4 532.700 81.0756   9
  -6  -2  -4 628.775 86.0360   1
   6  -2  -4 627.852 93.0196   9
  -6  -2  -4 481.951 81.0104   5
   6   2  -4 609.884 88.0422   8
   6   2  -4 475.328 76.9138   4
  -6   2  -4 677.076 86.2540   7
  -6   2  -4 575.358 97.7346   1
  -6   2  -4 582.055 68.9625   3
   6  -2  -4 549.767 82.9468   6
  -6   2  -4 560.706 64.8052   6
   6  -2  -4 481.337 63.8188   8
   6  -2  -4 416.725 74.3486   2
   6   2  -3 3011.00 175.780   9
  -6  -2  -3 3397.63 195.429   9
  -6  -2  -3 3236.48 159.624   8
   6   2  -3 2904.94 181.804   4
  -6   2  -3 3346.54 211.748   1
   6   2  -3 3397.20 203.619   8
   6  -2  -3 3216.97 199.159   2
  -6   2  -3 2955.38 179.412   7
  -6  -2  -3 3116.31 185.962   1
   6  -2  -3 3088.22 189.422   6
  -6   2  -3 2920.76 159.575   6
  -6   2  -3 2842.98 143.348   3
  -6  -2  -3 3263.29 202.353   5
   6   2  -3 3439.15 200.088   3
   6  -2  -2 357.549 68.2227   2
  -6  -2  -2 538.660 84.4380   5
   6   2  -2 496.827 81.0102   3
   6   2  -2 477.480 67.6210   9
  -6  -2  -2 476.215 60.9344   8
   6   2  -2 625.409 88.9888   8
   6   2  -2 575.441 52.3196   7
   6   2  -2 571.863 78.3104   4
  -6   2  -2 886.617 106.776  10
  -6   2  -2 589.109 80.0585   7
  -6   2  -2 451.497 77.6211   1
  -6   2  -2 486.351 48.4499   3
  -6   2  -2 485.299 66.0535   6
   6   2  -1 1375.05 116.877   9
  -6   2  -1 1624.06 139.070  10
   6   2  -1 1520.12 123.569   4
   6  -2  -1 1414.77 124.364   2
   6   2  -1 1373.75 118.492   8
   6  -2  -1 1642.75 144.553  10
   6   2  -1 1465.92 92.9610   7
  -6  -2  -1 1514.40 112.876  10
  -6   2  -1 1369.33 110.567   6
  -6  -2  -1 1353.25 71.6191   2
  -6   2  -1 1558.01 73.2960   3
  -6  -2  -1 1590.58 138.531   5
  -6  -2   0 6085.78 251.125  10
   6  -2   0 6018.33 258.131   9
   6   2   0 6300.75 270.725   4
   6   2   0 6351.19 261.953   8
   6  -2   0 5921.34 257.756   1
  -6   2   0 5992.16 280.089  10
   6   2   0 5764.08 229.191   7
   6  -2   0 6313.08 289.119  10
  -6   2   0 5452.72 248.804   6
   6   2   0 5931.98 263.348   9
   6   2   0 5830.59 240.261  10
  -6  -2   0 5703.17 204.791   2
   6  -2   0 5922.05 273.265   2
  -6   2   0 5538.80 163.471   3
  -6  -2   0 5818.29 295.923   5
  -6  -2   1 1502.17 120.990  10
   6   2   1 1491.07 110.133  10
  -6   2   1 1420.56 132.652  10
   6   2   1 1304.77 117.259   9
   6  -2   1 1527.21 124.615   1
   6  -2   1 1486.24 113.920   9
   6  -2   1 1409.37 130.814   2
   6   2   1 1428.82 120.852   4
   6   2   1 1439.03 119.950   1
   6   2   1 1525.65 115.719   8
   6  -2   1 1613.92 139.095  10
   6   2   1 1350.46 106.350   7
  -6  -2   1 1370.60 115.603   9
   6  -2   1 1511.54 116.114   6
  -6   2   1 1428.94 118.631   6
  -6  -2   1 1386.29 97.5848   2
  -6   2   1 1463.84 65.1479   5
  -6  -2   1 1542.42 149.872   5
   6  -2   1 1608.97 70.1366   5
   6   2   2 494.059 84.2582   5
  -6  -2   2 578.605 86.4221  10
   6   2   2 476.640 70.0707  10
  -6  -2   2 501.054 83.6394   5
  -6   2   2 503.672 88.2547  10
   6  -2   2 474.389 81.0959  10
   6   2   2 451.436 72.0564   9
   6  -2   2 522.863 67.3645   9
  -6  -2   2 442.956 61.3608   2
   6   2   2 490.564 62.5291   8
   6   2   2 549.780 76.6376   1
   6  -2   2 518.697 51.0899   3
   6   2   2 393.182 68.6124   4
  -6   2   2 491.851 40.4764   3
   6  -2   2 476.774 65.1234   6
  -6   2   2 588.681 77.9429   6
   6  -2   2 658.192 95.9642   2
   6  -2   2 483.474 44.1408   5
  -6   2   2 480.673 42.4320   5
  -6   2   3 3174.87 207.893  10
   6   2   3 3259.98 193.284  10
  -6   2   3 3347.50 146.599   5
   6  -2   3 3101.61 209.113  10
   6   2   3 2950.04 188.956   9
  -6  -2   3 3341.36 194.387   4
   6  -2   3 3133.85 162.715   9
   6   2   3 3124.19 184.601   4
   6   2   3 2934.03 151.508   8
   6  -2   3 2856.45 155.259   4
   6   2   3 3089.68 187.833   7
  -6  -2   3 3150.12 202.687  10
  -6   2   3 3277.22 192.682   6
  -6   2   3 3161.12 135.758   3
  -6  -2   3 3178.26 182.725   2
   6  -2   3 3247.22 210.302   1
   6   2   3 3225.18 197.223   1
  -6  -2   3 3435.55 215.793   5
   6  -2   3 3076.14 149.676   3
   6   2   3 3346.42 208.457   5
   6   2   4 557.896 89.7701   5
  -6  -2   4 617.769 95.6418   8
   6  -2   4 575.102 72.3383   3
  -6   2   4 603.969 67.3020   5
   6  -2   4 566.220 98.8473   1
   6   2   4 625.275 87.8048   1
   6   2   4 501.009 83.7484   9
   6  -2   4 435.673 58.2436   9
  -6  -2   4 552.703 81.7595   2
   6  -2   4 585.009 65.7578   4
   6   2   4 526.863 58.2253   8
   6  -2   4 622.443 102.374  10
  -6  -2   4 427.701 84.9900   5
  -6   2   4 709.020 117.904  10
   6   2   4 643.430 80.9997   4
   6   2   4 526.400 80.2394   7
  -6   2   4 630.434 64.4673   3
  -6   2   4 570.649 83.1740   6
  -6   2   4 466.305 82.0927   2
   6  -2   5 3103.43 229.904  10
   6   2   5 3340.27 229.816  10
   6   2   5 2880.07 196.197   9
   6  -2   5 2925.93 146.632   9
  -6  -2   5 2997.21 206.170   8
   6   2   5 3188.93 140.590   8
   6   2   5 3063.86 194.878   4
   6  -2   5 3312.91 241.165   1
   6   2   5 3144.08 217.281   1
  -6   2   5 2972.66 192.319   6
  -6   2   5 3027.12 165.568   3
   6  -2   5 3327.66 157.245   4
  -6  -2   5 2933.77 210.317   5
   6  -2   5 3116.48 179.200   3
   6  -2   6 4477.45 178.127   9
  -6   2   6 4316.33 230.256   5
   6   2   6 4857.44 298.042  10
   6   2   6 4467.66 258.775   9
  -6  -2   6 4087.02 256.332   3
   6  -2   6 4440.54 168.548   4
  -6  -2   6 4351.32 258.989   8
   6   2   6 4489.45 164.211   8
   6   2   6 4578.25 252.348   4
   6   2   6 4911.26 290.581   1
  -6   2   6 4455.65 247.411   6
  -6   2   6 4496.39 226.892   3
  -6  -2   6 4303.21 273.876   5
   6  -2   6 4471.98 236.810   3
  -6   2   7 260.305 63.1311   3
   6  -2   7 122.949 23.5839   9
   6  -2   7 128.787 42.9286   3
   6   2   7 156.489 64.8699   3
  -6  -2   7 123.359 52.4742   3
   6   2   7 195.404 69.3418   9
   6  -2   7 191.611 34.2616   9
  -6  -2   7 136.772 63.2484   8
   6   2   7 145.305 19.0908   8
   6   2   7 148.046 59.9031   4
  -6   2   7 168.175 58.8459   6
   6   2   7 121.020 22.6597   2
  -6  -2   8 901.310 125.302   8
   6   2   8 1086.46 134.958   3
   6  -2   8 924.702 123.434   3
   6   2   8 1179.85 116.160   4
   6   2   8 965.196 132.958   9
   6   2   8 1030.56 92.6182   6
  -6   2   8 1107.76 126.710   6
  -6  -2   8 1148.90 148.280   3
  -6   2   8 925.041 116.214   3
   6   2   9 471.896 104.982   3
   6  -2   9 447.535 93.6569   3
  -6  -2   9 312.375 90.9211   3
   6   2   9 492.863 107.392   9
  -6  -2   9 398.944 95.5319   8
  -6   2   9 356.844 85.1849   3
  -6   2   9 364.905 78.2981   6
   6   2  10 78.4768 66.2106   3
  -6   2  10 125.776 73.8406   3
  -6  -2  10 185.025 88.6497   3
   6   2  10 194.303 81.3073   9
  -6  -2  10 108.702 60.6473   8
   6  -2  10 174.602 70.4413   3
   6  -2  10 42.2582 66.5674   8
  -6   2  10 36.5790 50.2318   6
  -6   2  11 122.594 69.2654   3
  -6  -2  11 252.202 82.3062   3
  -6  -2  11 115.672 67.9533   8
   6  -2  11-47.8772 59.0650   8
   6  -2  11 148.955 80.3287   3
  -6   2  12 394.366 108.500   3
  -6  -3 -11 1660.82 215.005   1
   6  -3 -11 1260.85 181.232   2
   6  -3 -11 1740.65 241.209   1
  -6  -3 -10 2314.80 242.309   1
   6  -3 -10 2635.87 268.255   1
   6   3 -10 3226.78 308.313   1
   6  -3 -10 2856.74 258.381   2
  -6   3 -10 2591.67 282.641   1
  -6  -3  -9 2083.22 214.538   1
   6   3  -9 2134.72 177.706   4
  -6   3  -9 2356.72 253.504   1
   6  -3  -9 2111.20 213.868   2
  -6   3  -8 4272.53 324.856   1
  -6  -3  -8 3754.79 273.368   1
   6   3  -8 3871.15 245.997   4
   6  -3  -8 3668.69 273.543   2
   6   3  -7 8358.45 379.993   4
  -6  -3  -7 7813.36 429.211   5
  -6   3  -7 8386.24 451.809   1
  -6  -3  -7 7955.92 395.865   1
  -6   3  -7 8324.73 368.930   7
   6  -3  -7 8077.05 413.414   2
  -6   3  -7 8372.45 310.685   6
   6   3  -7 8945.89 340.237   9
  -6  -3  -6 5286.35 326.518   5
   6   3  -6 5144.86 250.199   9
  -6   3  -6 4993.57 319.748   1
   6   3  -6 5522.85 293.199   4
   6  -3  -6 5221.40 242.339   8
  -6  -3  -6 5629.63 297.626   1
  -6   3  -6 4952.92 266.237   7
   6  -3  -6 4790.09 299.985   2
  -6   3  -6 5397.80 242.460   6
  -6  -3  -5 6207.40 353.102   5
   6   3  -5 6700.40 326.856   4
   6   3  -5 7168.32 305.015   9
  -6   3  -5 6731.51 352.954   1
  -6  -3  -5 6324.56 306.428   1
   6  -3  -5 6408.93 342.575   2
  -6   3  -5 6262.50 304.770   7
  -6   3  -5 7115.78 296.804   6
  -6   3  -5 6857.04 304.853   3
   6   3  -4 10831.0 436.511   4
  -6  -3  -4 9065.14 348.209   8
  -6   3  -4 10464.0 443.869   1
   6  -3  -4 11186.0 462.039   2
  -6   3  -4 11327.8 425.198   7
   6   3  -4 10854.2 408.407   9
  -6  -3  -4 10830.1 397.320   1
  -6   3  -4 11029.4 404.886   6
  -6   3  -4 11016.6 390.580   3
  -6  -3  -4 11018.6 477.329   5
   6   3  -3 9465.88 376.569   9
  -6  -3  -3 10066.0 441.684   5
   6   3  -3 9206.16 394.076   4
   6  -3  -3 9197.70 411.957   2
  -6  -3  -3 9508.21 257.101   2
   6   3  -3 9364.31 270.034   7
  -6   3  -3 9498.67 385.284   7
  -6   3  -3 9861.74 395.061   1
  -6   3  -3 9086.02 370.876   6
  -6   3  -3 8302.90 322.539   3
  -6  -3  -2 3376.51 238.517   5
   6   3  -2 3516.15 212.311   9
  -6  -3  -2 3354.01 146.236   2
   6   3  -2 3584.83 224.469   4
   6  -3  -2 3383.30 228.070   2
   6   3  -2 3622.54 153.838   7
  -6   3  -2 3349.10 206.250   6
  -6   3  -2 3455.35 164.986   3
   6  -3  -1 10231.9 309.738   5
  -6   3  -1 10251.2 400.818  10
   6   3  -1 10073.8 406.435   9
   6  -3  -1 10411.0 417.609   9
  -6  -3  -1 10787.7 427.865   4
   6   3  -1 10164.2 416.423   4
   6  -3  -1 9706.05 425.647   2
  -6  -3  -1 9790.34 381.744   8
   6   3  -1 11338.4 421.507   8
   6  -3  -1 10481.6 418.508   4
   6  -3  -1 9675.08 357.462   1
   6   3  -1 10356.0 344.750   7
  -6   3  -1 9796.17 403.221   6
  -6   3  -1 9981.63 324.543   3
  -6  -3  -1 9023.49 432.186   5
   6  -3   0 2098.36 107.005   5
  -6  -3   0 2244.97 126.117  10
  -6  -3   0 2455.39 180.282   9
   6   3   0 1994.06 162.390   9
   6  -3   0 2231.75 147.533   1
   6  -3   0 2167.22 168.649   9
  -6  -3   0 2217.24 175.441   4
   6  -3   0 2332.56 191.998   2
   6   3   0 2169.89 172.272   4
  -6  -3   0 2070.50 157.996   8
   6   3   0 2434.76 167.560   8
   6  -3   0 2301.62 170.634   4
   6  -3   0 2280.84 168.772  10
  -6   3   0 2184.08 158.178  10
   6   3   0 2431.54 148.663   1
  -6   3   0 2180.14 168.250   6
   6   3   0 2678.35 210.208   5
  -6   3   0 2153.10 117.926   3
  -6  -3   0 2278.34 194.786   5
  -6   3   1 10365.1 408.324  10
   6  -3   1 10035.1 385.447   1
   6   3   1 10169.5 424.518   9
   6   3   1 10379.9 371.568   1
   6  -3   1 10946.6 413.767   9
   6  -3   1 10054.1 447.990   2
  -6  -3   1 10153.3 417.353   8
   6   3   1 10257.8 426.151   4
   6   3   1 11184.0 406.005   8
   6  -3   1 11666.2 425.627   4
   6  -3   1 11056.7 420.176  10
  -6  -3   1 11420.8 428.611   9
  -6   3   1 9837.05 419.634   6
  -6  -3   1 11333.9 367.359  10
  -6   3   1 11003.3 333.744   5
   6   3   1 10166.9 338.284  10
  -6  -3   1 9842.29 465.496   5
   6  -3   1 11306.9 338.310   5
  -6  -3   2 3326.53 179.149  10
   6   3   2 3196.60 164.016  10
  -6   3   2 3140.86 199.654  10
   6  -3   2 3061.12 203.693  10
   6   3   2 2771.57 202.219   9
   6  -3   2 3022.18 187.977   9
   6  -3   2 3000.38 226.704   2
   6   3   2 3116.34 209.561   4
  -6  -3   2 3107.55 209.176   8
   6   3   2 3109.27 181.365   8
   6  -3   2 2966.98 193.587   4
  -6   3   2 2819.32 203.441   6
   6  -3   2 3076.83 158.364   5
  -6  -3   2 3193.90 244.485   5
  -6   3   2 3196.08 158.385   5
  -6  -3   2 3130.04 199.184   9
   6   3   2 3249.40 177.170   1
  -6  -3   3 9041.33 359.754  10
   6   3   3 8434.22 394.307   9
   6  -3   3 9312.37 395.296  10
   6   3   3 8933.35 341.483  10
  -6  -3   3 8911.66 368.680   9
   6  -3   3 9240.82 355.555   9
   6   3   3 8620.29 393.027   4
   6   3   3 9209.66 337.447   8
   6  -3   3 8931.84 364.669   4
  -6   3   3 8965.27 382.715  10
  -6   3   3 8809.75 391.932   6
   6  -3   3 9095.33 384.354   1
   6   3   3 9109.80 348.975   1
  -6  -3   3 8498.66 392.999   8
  -6  -3   3 9674.79 378.775   2
   6  -3   3 9344.01 325.196   5
  -6  -3   3 8492.00 427.948   5
  -6   3   3 8962.25 317.802   5
  -6   3   4 10462.9 438.478  10
   6   3   4 9921.59 444.199   9
   6  -3   4 10904.6 452.473  10
   6  -3   4 10463.8 385.479   9
   6  -3   4 10639.6 389.803   3
  -6  -3   4 10636.4 457.547   8
   6   3   4 10332.2 445.914   4
   6  -3   4 10190.9 398.822   4
   6   3   4 10824.8 362.279   8
   6  -3   4 10961.4 452.251   1
   6   3   4 10159.0 400.049   1
  -6   3   4 10339.0 440.063   6
  -6   3   4 10733.9 368.073   3
   6  -3   4 10709.7 377.503   5
  -6  -3   4 11171.5 490.088   5
   6  -3   5 6177.60 289.334   3
   6   3   5 6222.61 308.959  10
   6   3   5 6268.33 341.784   9
   6  -3   5 6231.56 266.303   9
  -6  -3   5 6141.36 340.674   8
   6  -3   5 6368.65 282.568   4
   6   3   5 6240.97 334.299   4
  -6   3   5 6519.63 285.470   5
   6   3   5 6121.87 302.335   1
  -6   3   5 5961.31 320.610   6
  -6   3   5 6369.92 275.136   3
  -6   3   5 6130.39 330.443  10
  -6  -3   5 6212.96 356.775   5
  -6   3   6 4591.18 291.434  10
   6   3   6 4526.44 298.463   9
   6   3   6 5024.77 290.748  10
  -6   3   6 4652.47 251.433   5
   6  -3   6 4386.53 209.454   9
   6   3   6 4608.68 286.871   4
   6   3   6 4853.42 280.052   1
  -6   3   6 4720.49 281.252   6
  -6   3   6 4600.12 242.541   3
   6  -3   6 5147.04 229.133   4
  -6  -3   6 4728.81 309.600   5
  -6  -3   6 4583.61 299.883   8
   6  -3   6 4633.54 259.626   3
   6   3   7 8250.15 430.435   9
  -6  -3   7 9123.42 445.223   8
   6   3   7 8190.25 400.714   4
  -6   3   7 8285.38 396.482   6
  -6   3   7 7746.61 357.750   3
  -6  -3   7 8513.39 447.152   5
   6  -3   7 8127.64 379.685   3
   6   3   8 3428.64 275.445   9
  -6  -3   8 3461.69 272.512   8
   6   3   8 3480.56 243.000   4
   6   3   8 3689.32 232.432   6
   6   3   8 3197.80 258.382   3
  -6   3   8 3265.99 239.246   6
  -6   3   8 3443.41 233.272   3
  -6  -3   8 3530.37 285.690   5
   6  -3   8 3556.00 250.798   3
   6   3   9 2161.33 220.994   9
  -6  -3   9 2263.38 232.595   3
  -6  -3   9 2342.34 228.283   8
   6   3   9 2370.83 228.705   3
  -6   3   9 1520.49 166.418   6
  -6   3   9 2093.86 195.514   3
  -6  -3   9 2172.18 236.648   5
   6  -3   9 1623.76 180.862   3
  -6  -3  10 2941.52 278.053   3
   6   3  10 2619.97 249.971   9
  -6  -3  10 2608.55 251.206   8
   6  -3  10 2582.57 262.928   8
   6   3  10 2490.98 246.208   3
  -6   3  10 2813.72 223.383   6
  -6   3  10 2534.50 228.983   3
  -6  -3  10 2843.12 279.003   5
   6  -3  10 2905.08 252.170   3
  -6  -3  11 1361.34 180.130   8
   6  -3  11 1295.95 191.149   8
  -6   3  11 1270.94 171.483   3
   6   4 -10 2661.08 280.795   1
   6  -4 -10 3464.69 301.952   2
   6  -4  -9 1921.13 216.044   2
  -6   4  -9 1809.59 224.732   1
   6   4  -9 2017.06 234.879   1
  -6   4  -8 4419.77 332.517   1
   6   4  -8 4537.94 295.403   4
  -6  -4  -8 4428.54 284.161   1
   6   4  -8 4838.18 340.801   1
  -6  -4  -8 4840.72 369.124   5
   6  -4  -8 4478.65 328.033   2
  -6  -4  -7 5491.60 375.010   5
   6   4  -7 5180.73 272.618   9
  -6  -4  -7 4861.83 279.228   1
  -6   4  -7 4979.85 281.514   7
   6   4  -7 5042.68 311.491   4
   6  -4  -7 5123.51 344.266   2
  -6   4  -7 5048.48 270.781   6
  -6   4  -7 4781.62 326.987   1
  -6  -4  -6 7342.15 434.760   5
   6   4  -6 7282.84 342.165   9
  -6   4  -6 6763.40 376.278   1
  -6   4  -6 7227.43 348.251   7
   6   4  -6 6900.75 373.645   4
  -6  -4  -6 7028.54 321.470   1
  -6   4  -6 7186.69 344.660   6
   6  -4  -6 6893.31 396.415   2
   6   4  -5 3491.40 227.248   9
  -6  -4  -5 3597.42 287.436   5
   6  -4  -5 3265.26 257.339   2
   6   4  -5 3556.52 255.259   4
  -6   4  -5 3325.44 237.457   1
  -6   4  -5 3227.01 222.349   7
  -6   4  -5 3674.82 236.236   6
   6   4  -4 7783.92 368.844   9
   6   4  -4 7928.21 397.066   4
   6  -4  -4 7899.46 415.601   2
  -6  -4  -4 7784.72 254.517   2
  -6   4  -4 7483.00 362.535   7
  -6   4  -4 8072.64 363.769   1
  -6  -4  -4 6771.99 408.439   5
  -6   4  -4 7352.25 365.036   6
  -6   4  -4 7807.77 345.063   3
  -6  -4  -3 9307.45 360.287   8
  -6  -4  -3 7743.32 423.996   5
  -6  -4  -3 8979.99 286.919   2
   6  -4  -3 8420.53 422.875   2
  -6   4  -3 8552.63 383.122   7
   6   4  -3 9571.71 263.063   7
   6   4  -3 9390.14 399.588   9
  -6   4  -3 7910.28 382.564   6
  -6   4  -3 9120.59 347.300   3
   6   4  -3 9306.22 422.495   4
  -6  -4  -2 3790.94 283.770   5
  -6  -4  -2 4179.84 204.689   2
   6   4  -2 4289.27 266.539   9
   6  -4  -2 4174.64 207.543   5
  -6  -4  -2 4432.61 246.844   8
   6   4  -2 4036.06 271.429   4
   6  -4  -2 4295.05 203.701   1
   6  -4  -2 3802.56 274.169   2
   6   4  -2 4323.62 193.666   7
  -6   4  -2 3985.14 261.133   6
  -6   4  -2 4072.07 215.295   3
   6  -4  -1 1496.44 114.691   1
   6   4  -1 1566.51 166.542   4
  -6  -4  -1 1540.56 148.035   8
   6  -4  -1 1551.15 116.395   5
   6   4  -1 1605.76 161.515   9
   6   4  -1 1659.85 116.511   1
  -6   4  -1 1678.62 176.123   6
   6  -4  -1 1137.80 150.703   2
  -6  -4  -1 1594.69 185.113   5
   6  -4   0 16274.9 665.793   2
  -6   4   0 17494.2 574.329  10
   6   4   0 17364.7 649.403   9
   6   4   0 18229.6 518.513   1
  -6  -4   0 18093.5 636.626   8
   6   4   0 17626.9 662.091   4
   6  -4   0 16824.8 529.339   5
  -6   4   0 16810.6 646.772   6
   6  -4   0 16926.5 538.866   1
  -6  -4   0 19433.6 714.749   5
   6  -4   1 1170.95 119.530  10
  -6   4   1 1349.14 122.029  10
  -6  -4   1 1329.23 166.960   5
   6   4   1 1268.68 149.734   9
  -6  -4   1 1374.29 153.960   8
   6   4   1 1387.28 163.625   4
  -6  -4   1 1173.61 72.6423  10
   6  -4   1 993.321 99.1300   1
  -6   4   1 801.703 125.335   6
  -6   4   1 1335.93 107.086   5
   6  -4   1 1299.87 162.966   2
   6   4   1 1301.74 93.8215   1
   6  -4   1 1359.99 108.245   5
  -6  -4   2 4132.34 181.441  10
  -6   4   2 3980.27 229.718  10
   6   4   2 4051.25 277.953   9
   6  -4   2 4177.50 298.198   2
  -6  -4   2 4217.92 277.894   8
   6   4   2 3973.79 275.483   4
   6  -4   2 4395.30 245.322  10
  -6   4   2 3941.04 273.701   6
   6   4   2 4128.82 187.409   1
  -6   4   2 4220.13 216.461   5
  -6  -4   2 4368.73 312.781   5
   6  -4   2 4271.37 216.953   5
   6  -4   3 9311.32 397.101  10
  -6   4   3 9044.02 385.759  10
   6   4   3 8781.97 440.580   9
   6  -4   3 9363.29 468.291   2
  -6  -4   3 8960.18 331.413  10
  -6  -4   3 8328.51 427.887   8
   6   4   3 8358.71 431.801   4
   6   4   3 8921.48 318.652   1
   6  -4   3 8870.84 374.860   1
   6   4   3 8857.48 298.920  10
  -6   4   3 8357.11 429.749   6
   6  -4   3 8402.79 356.252   5
  -6  -4   3 7885.07 454.306   5
  -6  -4   4 7936.17 327.305  10
  -6   4   4 7313.37 350.893  10
   6   4   4 7413.45 293.397  10
   6  -4   4 6802.53 350.389  10
   6   4   4 7405.69 410.116   9
   6  -4   4 6658.89 335.403   9
   6   4   4 7309.88 399.051   4
   6   4   4 7192.22 296.099   1
   6  -4   4 7366.68 354.730   1
  -6   4   4 7297.31 395.683   6
  -6  -4   4 7693.06 414.159   8
   6  -4   4 7518.37 334.377   5
  -6  -4   4 7099.34 425.478   5
  -6   4   4 7025.00 323.003   5
  -6  -4   5 3282.42 220.045  10
  -6  -4   5 3439.47 274.885   8
   6  -4   5 2820.14 197.120   9
   6   4   5 3022.98 259.197   9
   6   4   5 3466.53 265.499   4
  -6   4   5 3182.73 227.903  10
  -6   4   5 3019.61 245.446   6
  -6   4   5 3525.60 215.006   3
   6  -4   5 3640.19 229.533   5
  -6  -4   5 2665.50 258.063   5
  -6   4   6 7058.59 378.094  10
  -6  -4   6 7561.45 434.762   8
   6   4   6 7169.56 407.627   4
  -6   4   6 7336.06 405.548   6
  -6   4   6 7564.49 353.778   3
   6   4   6 6858.60 416.238   9
   6  -4   6 7636.94 366.137   5
  -6  -4   6 7547.09 451.525   5
  -6   4   7 4328.70 300.142  10
   6   4   7 5122.21 330.983   4
  -6  -4   7 5016.02 355.281   8
  -6   4   7 4742.09 322.326   6
   6   4   7 4526.48 337.741   9
  -6   4   7 4630.73 281.318   3
   6  -4   7 4949.13 299.472   5
  -6  -4   7 5181.68 373.386   5
  -6   4   8 4658.10 333.047  10
   6   4   8 4782.25 351.530   9
  -6  -4   8 4666.80 352.132   8
   6   4   8 4672.84 324.616   4
   6  -4   8 4748.75 312.521   3
   6   4   8 4933.99 311.328   6
  -6   4   8 4998.83 332.595   6
  -6   4   8 4646.96 294.904   3
   6  -4   8 4288.03 292.310   5
  -6  -4   8 4957.60 376.530   5
  -6   4   9 2121.79 230.993  10
   6   4   9 1964.39 229.113   9
  -6  -4   9 1924.79 232.565   8
   6  -4   9 1883.57 232.778   8
   6  -4   9 2264.84 216.383   3
  -6   4   9 1887.67 205.282   6
  -6   4   9 1770.33 188.623   3
   6  -4   9 1899.79 198.218   5
   6   4  10 2925.03 278.913   9
  -6   4  10 2902.80 253.420   6
   6  -4  10 2842.82 265.118   3
  -6   4  10 3087.36 262.004   3
   6  -5  -8 701.728 146.377   2
  -6   5  -8 431.842 115.004   1
  -6   5  -7 1466.57 172.395   1
   6  -5  -7 1383.95 188.636   2
   6   5  -7 1255.15 175.712   4
   6  -5  -6 1757.39 215.874   2
   6   5  -6 1676.41 171.436   9
  -6  -5  -6 1785.45 229.803   5
   6   5  -6 1877.49 210.422   4
  -6   5  -6 1930.97 185.109   1
   6   5  -6 1738.42 176.025   1
  -6   5  -6 1590.45 173.187   6
  -6  -5  -5 1263.57 187.730   5
   6  -5  -5 1523.00 196.274   2
  -6   5  -5 1372.40 152.324   7
   6   5  -5 1599.19 158.709   1
   6   5  -5 1468.17 169.352   9
  -6   5  -5 1628.99 158.797   1
   6   5  -5 1609.85 195.099   4
  -6   5  -5 1282.46 161.230   6
  -6  -5  -4 2019.98 235.464   5
   6   5  -4 2707.21 231.459   9
  -6  -5  -4 2946.68 202.688   8
   6   5  -4 2856.58 253.326   4
   6   5  -4 2601.17 186.282   1
   6  -5  -4 2835.36 261.926   2
  -6   5  -4 2443.44 210.060   7
  -6   5  -4 2492.99 225.642   6
   6  -5  -3 3596.91 224.136   5
   6   5  -3 3285.79 263.023   9
  -6  -5  -3 3433.67 237.842   8
   6   5  -3 3528.10 285.866   4
   6  -5  -3 2770.21 261.531   2
  -6  -5  -3 3982.19 316.021   5
  -6   5  -3 3427.53 268.649   6
   6  -5  -2 2748.83 192.698   5
   6   5  -2 2976.80 251.522   9
  -6  -5  -2 3203.97 198.845   2
  -6  -5  -2 3347.49 286.579   5
  -6  -5  -2 3119.29 233.217   8
   6  -5  -2 2440.27 245.278   2
   6   5  -2 3294.78 275.842   4
  -6   5  -2 2768.16 244.756   6
   6  -5  -1 1479.80 133.977   5
  -6  -5  -1 1191.64 167.832   5
   6   5  -1 1228.21 162.647   9
  -6  -5  -1 1309.84 158.196   8
   6   5  -1 1238.43 169.290   4
  -6  -5  -1 1460.60 140.165   2
  -6   5  -1 1398.12 169.965   6
   6  -5  -1 1447.38 183.662   2
   6  -5   0 4604.50 247.185   5
   6   5   0 5003.73 342.162   9
  -6  -5   0 4507.74 306.053   8
   6   5   0 4452.49 328.549   4
   6  -5   0 4867.74 341.946   2
  -6   5   0 4515.37 323.287   6
  -6  -5   0 4869.21 344.880   5
   6  -5   1 1333.23 124.526   5
   6   5   1 1453.07 182.654   9
  -6   5   1 1479.85 124.897  10
  -6  -5   1 1196.97 176.515   5
  -6  -5   1 1228.41 158.711   8
   6   5   1 1291.85 179.866   4
  -6   5   1 1256.35 171.662   6
   6  -5   1 1554.04 191.824   2
  -6   5   2 3339.04 200.952  10
   6   5   2 3249.46 282.045   9
   6  -5   2 3382.34 284.902   2
  -6  -5   2 3433.58 279.593   8
   6   5   2 3209.30 277.197   4
  -6   5   2 3011.18 268.535   6
  -6  -5   2 3403.59 295.024   5
   6  -5   2 3515.17 213.258   5
  -6   5   3 3406.53 211.210  10
   6   5   3 3347.31 292.545   9
   6  -5   3 3340.35 290.092   2
  -6  -5   3 2814.06 267.723   8
   6   5   3 3517.13 291.235   4
  -6   5   3 3531.33 289.451   6
  -6  -5   3 3355.08 298.580   5
   6  -5   3 3562.30 225.288   5
   6   5   4 2943.68 276.549   9
   6  -5   4 2352.54 246.617   2
  -6  -5   4 2489.02 253.072   8
   6   5   4 2584.61 251.249   4
  -6   5   4 2743.39 200.404  10
  -6   5   4 2896.85 274.749   6
  -6  -5   4 2491.72 271.297   5
   6  -5   4 2685.57 208.872   5
  -6  -5   5 1522.93 222.910   5
   6   5   5 1731.87 211.960   9
  -6  -5   5 1650.11 218.293   8
   6  -5   5 1370.70 160.936   5
   6   5   5 1217.81 172.969   4
  -6   5   5 1620.25 202.418   6
  -6  -5   6 1824.53 239.996   5
   6   5   6 2185.31 245.152   9
  -6  -5   6 2011.56 237.564   8
   6   5   6 2124.11 227.173   4
  -6   5   6 2051.28 191.390   3
  -6   5   6 1806.89 217.180   6
   6  -5   6 1663.71 181.806   5
   6  -5   7 1331.73 169.397   5
   6   5   7 1380.06 199.110   9
   6   5   7 1208.42 176.436   4
  -6   5   7 1493.45 204.225   6
   6  -5   8 205.795 92.1094   5
   6   5   8 538.638 110.359   6
   6  -6  -5 316.473 106.635   2
   6   6  -5 125.319 74.0292   4
  -6   6  -5 185.431 79.0490   6
   6  -6  -4 482.040 137.838   2
   6   6  -4 377.660 112.029   9
   6   6  -4 503.273 132.553   4
  -6   6  -4 485.605 118.525   6
  -6  -6  -3 103.463 92.4088   5
   6   6  -3 65.5298 68.1266   9
   6  -6  -3-92.2074 91.5932   2
  -6   6  -3 145.470 63.0587   7
   6   6  -3 119.810 84.7571   4
  -6   6  -3-11.7475 78.3212   6
  -6  -6  -2 526.402 128.075   5
   6   6  -2 326.694 113.408   9
  -6  -6  -2 297.711 81.6057   8
   6  -6  -2 483.266 132.436   2
   6   6  -2 353.398 120.470   4
  -6   6  -2 399.339 103.131   6
   6   6  -1-64.6866 58.3423   9
  -6  -6  -1 59.9027 65.9825   8
  -6  -6  -1 68.5416 75.1966   5
   6   6  -1-1.39856 61.6008   4
  -6   6  -1 72.2843 84.3776   6
   6  -6  -1-25.4309 57.7628   2
  -6  -6   0 125.663 87.0399   5
   6   6   0-5.81452 62.5947   9
  -6  -6   0-75.6979 83.3730   8
   6   6   0 65.9789 78.0504   4
  -6   6   0 0.42986 49.8523   6
  -6  -6   0 134.974 64.5098   2
   6  -6   0 58.5907 61.5541   2
  -6  -6   1 12.7049 81.8690   5
   6   6   1-52.6165 64.4505   9
  -6  -6   1 114.623 88.3419   8
   6   6   1 101.847 82.7111   4
  -6   6   1-50.0536 74.3002   6
   6  -6   1-60.5542 90.7855   2
  -6  -6   2 366.972 121.291   5
   6   6   2 553.183 140.436   9
  -6  -6   2 283.798 98.9928   8
   6   6   2 424.562 113.411   4
  -6   6   2 484.207 132.626   6
   6  -6   2 599.867 145.380   2
  -6  -6   3-7.79061 69.0775   8
   6   6   3 149.939 82.4535   4
  -6  -6   3 215.894 105.763   5
  -7   0 -11-7.56252 78.9504   1
  -7   0 -10 180.457 111.623   1
   7   0 -10 94.9977 49.2244   4
   7   0  -9-21.7452 40.5508   4
  -7   0  -9 38.6245 68.8307   1
  -7   0  -8 17.7844 67.7932   1
   7   0  -8-4.29788 29.3644   9
   7   0  -8 53.1733 52.7254   2
   7   0  -7-11.7801 35.8090   9
   7   0  -7 18.8208 38.3543   2
   7   0  -7 55.4049 49.0109   8
   7   0  -7 52.1807 39.8254   6
   7   0  -6 46.6154 30.6469   3
  -7   0  -6 88.2395 65.6041   1
   7   0  -6 8.31970 46.1524   2
   7   0  -6 22.5619 34.5899   8
   7   0  -6 9.66198 36.6081   6
   7   0  -5-23.8080 35.8091   2
   7   0  -5 19.0044 30.5724   3
   7   0  -5 65.6472 44.0215   8
  -7   0  -5-64.7068 47.2137   1
   7   0  -5 15.1750 37.7757   6
   7   0  -4 5.81619 44.5971   2
   7   0  -4 12.4495 30.8534   8
   7   0  -4-7.73199 25.8109   6
   7   0  -4 10.2243 30.2016   3
  -7   0  -4 19.1070 57.8975   1
   7   0  -3-13.3723 24.3508   3
  -7   0  -3 3.40523 19.4051   5
   7   0  -3 8.52791 32.6058   2
   7   0  -3 12.4682 26.6052   8
  -7   0  -3 13.5960 33.2006   7
  -7   0  -3 5.84658 43.5732   1
  -7   0  -2-24.1160 33.9837  10
   7   0  -2 31.9066 25.0113   3
  -7   0  -2-10.8008 16.5875   5
   7   0  -2 0.75735 26.0523   2
  -7   0  -2 83.2628 56.4106   1
   7   0  -2 23.5907 28.2598   8
  -7   0  -2 18.0513 32.1839   7
   7   0  -1 29.1387 36.4591   2
  -7   0  -1 25.5313 52.7611  10
   7   0  -1 40.6542 20.7715   3
  -7   0  -1 23.1696 18.8648   5
   7   0  -1 41.7228 26.5194   8
  -7   0  -1 59.5934 32.8860   7
  -7   0  -1 11.0050 18.7801   2
  -7   0   0 28.6974 22.8295   5
  -7   0   0 15.4578 45.5027  10
   7   0   0 13.3089 24.1594   2
   7   0   0 37.2749 28.8459   8
  -7   0   0 39.3767 27.2729   7
   7   0   0 25.8841 24.1942   5
  -7   0   0-2.55582 16.6477   2
  -7   0   1-14.5347 45.8319  10
  -7   0   1 3.04555 26.8535   2
   7   0   1-20.5647 24.7235   2
  -7   0   1 50.4261 26.9888   5
   7   0   1 7.16886 29.3882   5
   7   0   1 71.4485 35.7166   8
  -7   0   1 39.2698 30.6974   7
   7   0   1 34.9705 34.6218   6
  -7   0   2-29.5009 50.1631  10
  -7   0   2 9.14773 23.0037   5
   7   0   2 23.7706 31.9634   9
  -7   0   2 52.6076 34.0253   2
   7   0   2 34.4985 29.0070   4
   7   0   2 3.12585 17.3096   2
   7   0   2 17.6228 21.3939   5
   7   0   2-0.59566 20.3395   6
   7   0   3 7.88299 22.2596   3
   7   0   3 12.1298 25.4114   5
  -7   0   3 36.4710 34.8673   3
  -7   0   3 112.739 73.5976  10
   7   0   3 31.1383 32.4259   9
   7   0   3 13.3538 19.1447   4
   7   0   3 12.2885 21.5514   6
   7   0   3 60.9480 27.4603   2
   7   0   4 22.1169 29.6544   5
  -7   0   4 47.3147 32.1989   3
   7   0   4 11.0955 32.0159   3
   7   0   4-9.48872 21.7447   2
   7   0   4 20.5031 32.9350   9
  -7   0   4-3.57835 27.6641   8
   7   0   4 35.8408 25.7363   4
   7   0   4 3.09654 18.0281   6
  -7   0   4 15.1115 26.7359   2
  -7   0   5 17.3656 32.6730   2
   7   0   5 39.9030 38.8259   5
  -7   0   5 90.2907 42.0244   3
   7   0   5 51.5234 35.4854   9
  -7   0   5 72.4197 40.0848   8
   7   0   5-39.7345 40.4690  10
   7   0   5-4.19224 19.8600   4
   7   0   5 36.7124 34.8878   7
   7   0   5 18.9888 20.6256   6
   7   0   5 45.7195 35.0512   3
   7   0   6 14.5764 47.4799   3
  -7   0   6 40.0342 34.5149   3
   7   0   6 38.2380 39.2682   5
   7   0   6 18.5463 27.8836   9
  -7   0   6 36.0704 35.5009   8
   7   0   6 1.31263 16.4266   4
   7   0   6 50.4628 20.1212   6
  -7   0   7 13.9029 42.9156   3
   7   0   7 56.4115 39.6312   9
   7   0   7 7.61268 25.1304   2
  -7   0   7-44.5678 33.4656   8
   7   0   7 62.3385 44.3109   3
   7   0   7 23.5081 12.6909   4
  -7   0   8 27.0085 54.0722   3
   7   0   8 30.8024 31.0584   9
   7   0   8-29.2794 30.7077   2
  -7   0   8 68.2814 49.6960   8
   7   0   8 54.2370 57.2031   3
   7   0   9-23.3215 34.5857   9
  -7   0   9 6.01904 51.2436   3
  -7   0   9 12.1757 41.5855   8
   7   0   9 46.3723 58.4695   3
   7   0  10 91.4355 67.6597   3
  -7   0  10-25.4411 58.2782   3
  -7   0  11-77.5309 81.2062   3
   7   0  11 90.0009 82.3601   3
  -7   0  12 46.6389 63.1539   3
  -7  -1 -11 1772.98 251.455   1
  -7   1 -11 2047.59 271.420   1
  -7  -1 -10 2136.54 260.317   1
   7   1 -10 2265.23 183.014   4
  -7   1 -10 2731.90 301.616   1
   7  -1 -10 2068.45 216.672   2
  -7   1  -9 4045.68 341.281   1
  -7  -1  -9 3929.83 333.097   1
   7   1  -9 3809.79 206.266   9
   7   1  -9 3610.82 233.917   4
   7  -1  -9 3612.45 273.313   2
  -7   1  -8 4527.31 347.301   1
  -7  -1  -8 4738.35 344.011   1
   7   1  -8 4608.44 256.602   4
   7   1  -8 4285.17 220.730   9
   7  -1  -8 4529.39 238.648   8
   7  -1  -8 4108.86 281.992   2
   7   1  -7 8291.77 323.427   9
  -7   1  -7 8303.33 460.824   1
  -7  -1  -7 7981.44 440.486   1
   7   1  -7 7829.12 350.171   4
   7  -1  -7 7705.88 325.147   8
   7  -1  -7 7994.15 391.873   2
   7   1  -6 312.327 58.8489   9
  -7   1  -6 472.324 104.647   1
   7  -1  -6 326.664 71.1888   9
  -7  -1  -6 312.151 87.3540   1
   7  -1  -6 320.912 58.6293   8
   7   1  -6 341.555 68.7441   4
   7  -1  -6 345.327 69.5532   6
   7  -1  -6 326.606 75.4677   2
   7   1  -6 499.709 75.9573   6
  -7  -1  -5 13036.2 485.175   5
   7   1  -5 13260.2 452.303   9
  -7  -1  -5 13161.8 425.057   4
   7   1  -5 12828.7 474.064   4
   7  -1  -5 13702.3 480.936   9
  -7   1  -5 13263.2 566.196   1
  -7  -1  -5 14161.9 557.269   1
   7  -1  -5 13029.1 458.083   8
   7   1  -5 14483.1 500.063   8
  -7   1  -5 13216.4 481.052   7
   7  -1  -5 13830.8 507.303   2
   7  -1  -5 14360.2 488.640   6
   7  -1  -5 13676.8 435.891   3
   7   1  -5 15017.5 488.320   6
   7   1  -5 13882.4 470.534   3
   7   1  -4 520.359 74.4224   9
   7   1  -4 494.525 70.6521   3
  -7  -1  -4 454.703 87.0706   1
   7  -1  -4 469.674 77.0382   2
  -7  -1  -4 421.812 70.0046   5
   7   1  -4 461.207 73.6869   2
   7  -1  -4 470.785 67.1542   8
   7   1  -4 616.426 85.4838   8
  -7  -1  -4 535.207 64.5419   4
   7   1  -4 484.503 72.1502   4
  -7   1  -4 359.123 67.3329   7
   7  -1  -4 406.983 53.3549   3
   7  -1  -4 562.727 77.3297   6
   7   1  -4 598.800 79.7649   6
  -7   1  -4 415.667 50.3823   6
  -7   1  -4 490.491 96.9480   1
  -7  -1  -3 25013.7 735.581   5
   7   1  -3 25365.1 750.907   4
  -7  -1  -3 26744.6 721.222   4
   7  -1  -3 26668.0 744.686   8
   7   1  -3 26988.9 763.636   8
  -7   1  -3 24113.6 808.892   1
  -7   1  -3 24149.5 741.585   7
   7  -1  -3 24505.8 753.177   2
   7   1  -3 25758.7 735.535   9
  -7  -1  -3 25794.5 796.514   1
  -7   1  -3 25567.9 695.571   6
   7   1  -3 26815.7 750.892   6
   7   1  -3 26204.1 744.040   2
   7   1  -3 25587.0 717.961   3
  -7   1  -2 4634.28 266.043  10
  -7  -1  -2 4864.91 255.206  10
   7   1  -2 4485.44 218.125   9
  -7  -1  -2 4471.59 211.404   4
   7   1  -2 4375.41 223.121   4
   7   1  -2 4956.80 234.912   8
   7  -1  -2 4854.67 225.583   8
   7  -1  -2 4557.97 222.119   2
  -7   1  -2 4421.21 220.217   7
  -7  -1  -2 4772.36 217.378   5
  -7   1  -2 4529.14 254.581   1
  -7   1  -2 4625.98 202.900   6
   7   1  -2 4184.89 199.982   2
   7   1  -2 4860.59 207.478   3
  -7  -1  -1 34410.2 905.364   5
  -7   1  -1 32895.7 974.672  10
  -7  -1  -1 32421.7 948.743  10
   7   1  -1 34353.5 917.824   4
   7   1  -1 35227.9 920.032   8
  -7  -1  -1 32859.1 809.735   2
   7   1  -1 32638.8 860.736   7
  -7   1  -1 32176.0 904.943   7
  -7  -1  -1 32811.0 896.683   7
   7   1  -1 33056.1 908.853   9
   7  -1  -1 33996.2 903.349   2
  -7   1  -1 32911.6 884.770   6
   7   1  -1 32795.8 857.507   2
   7   1  -1 33701.0 903.641   5
  -7   1   0 1101.68 120.736  10
   7   1   0 994.624 98.2862   9
  -7  -1   0 1104.01 119.310  10
   7   1   0 1065.84 98.7774   4
  -7   1   0 1195.97 99.8546   2
   7   1   0 1023.33 94.9374   8
   7  -1   0 1053.16 93.0254   2
  -7  -1   0 1136.74 75.4508   2
  -7   1   0 1106.09 102.052   7
   7   1   0 1036.73 87.9865   7
  -7  -1   0 930.028 86.2301   7
   7   1   0 1377.08 126.040  10
  -7   1   0 1115.57 97.9721   6
   7   1   0 1083.14 74.6543   2
   7   1   0 1044.96 105.313   5
  -7  -1   0 1161.79 108.855   5
   7   1   1 34236.1 964.610  10
  -7  -1   1 31930.0 965.297  10
   7   1   1 36204.9 938.340   9
   7   1   1 34304.6 918.447   4
   7   1   1 35215.8 914.879   8
   7   1   1 32494.0 962.298   1
  -7  -1   1 34625.2 882.200   7
  -7  -1   1 33896.3 876.619   2
  -7   1   1 34260.4 993.154  10
   7  -1   1 34304.7 904.560   2
   7  -1   1 34087.5 899.558   6
  -7   1   1 33675.6 918.427   6
   7   1   1 33215.7 819.130   2
   7  -1   1 35753.3 795.607   3
  -7   1   1 33387.3 802.188   5
  -7  -1   1 31197.5 944.634   5
   7   1   1 33387.7 952.350   5
   7  -1   1 32040.6 805.184   5
  -7   1   2 4647.72 143.014   3
  -7  -1   2 4005.74 239.286  10
  -7   1   2 4752.34 261.846  10
   7  -1   2 4338.99 156.325   5
   7   1   2 3762.95 231.026   1
   7  -1   2 4470.06 210.013   2
   7   1   2 4149.00 202.208   4
   7   1   2 4480.34 201.679   8
  -7  -1   2 4428.92 183.454   7
  -7  -1   2 4385.96 201.637   2
   7  -1   2 4380.73 193.874   6
  -7   1   2 4360.75 216.662   6
   7   1   2 4400.63 217.668   9
   7   1   2 4155.30 125.221   2
   7  -1   2 4223.54 152.969   3
  -7  -1   2 4440.06 228.715   5
   7   1   2 4530.56 224.381   5
  -7   1   3 26836.3 828.045  10
   7   1   3 25548.9 817.435   1
  -7  -1   3 23575.0 801.743  10
   7  -1   3 25918.8 686.258   5
   7   1   3 25920.2 753.289   9
  -7  -1   3 27199.9 691.406   7
   7  -1   3 26710.9 759.796   2
   7   1   3 25222.6 719.770   4
   7   1   3 25615.7 716.244   8
   7  -1   3 26660.2 706.028   6
  -7   1   3 25650.0 757.189   6
   7  -1   3 25508.6 682.298   3
  -7  -1   3 26438.9 766.859   5
  -7   1   3 26186.3 665.156   3
   7   1   3 27247.2 764.385   5
  -7   1   4 754.337 130.599  10
   7   1   4 713.540 107.787   1
   7  -1   4 431.456 58.8946   5
  -7  -1   4 617.335 86.4314   2
  -7  -1   4 784.825 92.6205   3
   7  -1   4 509.769 62.5721   3
   7   1   4 536.620 79.3579   5
   7   1   4 599.514 80.5801   9
  -7  -1   4 612.883 89.2257   5
   7   1   4 659.768 73.6866   4
   7   1   4 571.373 68.3433   8
   7   1   4 783.923 113.409  10
  -7  -1   4 598.037 85.8684   8
   7  -1   4 630.734 103.532   1
  -7  -1   4 755.835 65.1517   7
   7  -1   4 661.719 89.4566   7
   7  -1   4 617.295 60.4479   6
  -7   1   4 526.292 79.5800   6
  -7   1   4 549.260 60.0680   3
  -7  -1   5 14196.2 492.120   3
   7   1   5 15334.4 515.156   5
   7   1   5 14479.8 449.823   4
   7  -1   5 14665.3 468.535   5
   7   1   5 14947.4 584.733  10
   7  -1   5 14760.0 442.658   9
   7   1   5 14232.9 477.706   9
   7  -1   5 14980.7 399.785   4
   7   1   5 13987.4 432.736   8
  -7  -1   5 14393.0 506.998   8
  -7  -1   5 14853.6 415.361   7
   7  -1   5 16094.4 513.616   7
   7   1   5 12220.6 348.898   2
   7   1   5 13621.2 348.681   2
   7  -1   5 14419.0 405.063   6
   7   1   5 16182.0 596.357   1
  -7   1   5 13999.7 492.084   6
   7  -1   5 14926.6 468.862   3
  -7   1   5 14478.0 447.662   3
   7   1   6 512.777 87.1596   3
   7  -1   6 386.550 73.0538   3
   7  -1   6 600.502 84.3021   5
  -7  -1   6 415.005 78.5532   3
   7  -1   6 496.297 60.0663   9
  -7   1   6 465.052 68.0048   3
   7   1   6 512.159 77.0066   9
   7  -1   6 501.983 38.1598   4
   7   1   6 460.189 58.7030   8
  -7  -1   6 581.248 92.4333   8
   7  -1   6 484.251 37.9137   4
   7   1   6 519.763 70.1480   4
   7   1   6 481.981 40.6453   2
   7   1   6 540.637 56.5622   6
  -7   1   6 571.784 87.0240   6
   7  -1   7 8460.26 287.165   9
   7   1   7 8546.67 354.927   9
   7   1   7 8140.59 286.540   8
  -7  -1   7 8427.66 375.753   8
   7   1   7 7678.20 310.056   4
   7   1   7 8331.09 264.586   2
   7   1   7 8019.11 378.461   3
   7   1   7 8742.15 262.360   6
  -7   1   7 8281.22 359.082   6
   7  -1   7 7699.18 353.649   3
  -7   1   7 7752.33 339.762   3
  -7  -1   7 8202.08 375.144   3
  -7  -1   8 4310.62 260.359   8
   7   1   8 4910.08 261.800   9
   7  -1   8 4635.98 183.852   9
   7   1   8 4364.52 180.696   8
   7   1   8 4315.84 182.235   2
   7   1   8 4085.36 131.753   6
   7   1   8 3786.92 129.502   6
   7   1   8 4228.22 270.614   3
  -7   1   8 4411.98 250.264   6
   7  -1   8 4642.84 271.813   3
  -7   1   8 4406.08 251.094   3
  -7  -1   8 4021.72 261.569   3
   7   1   9 4251.27 262.597   9
  -7  -1   9 4321.03 267.469   8
   7   1   9 3918.98 276.891   3
   7  -1   9 4155.48 273.795   3
  -7   1   9 4067.58 258.498   3
  -7  -1   9 3988.72 274.286   3
  -7  -1  10 1749.86 172.121   8
   7   1  10 2154.63 216.200   3
   7  -1  10 1975.00 200.852   3
  -7   1  10 1665.91 176.615   3
  -7  -1  10 1916.86 198.526   3
  -7   1  11 1411.13 168.305   3
  -7  -1  11 1422.55 158.858   8
   7   1  11 1907.99 212.730   3
   7  -1  11 1587.73 192.626   3
  -7  -1  11 1727.55 197.950   3
  -7   1  12 104.048 71.6343   3
  -7  -2 -11 3350.02 328.454   1
   7  -2 -11 2905.56 276.321   2
   7  -2 -10 803.945 139.600   2
  -7  -2 -10 975.012 170.474   1
  -7   2 -10 745.127 150.720   1
   7   2 -10 760.064 105.839   4
  -7  -2  -9 3108.96 284.951   1
  -7   2  -9 3088.39 299.575   1
   7   2  -9 3032.16 211.890   4
   7  -2  -9 3048.44 254.866   2
   7   2  -8 1129.40 103.287   9
  -7   2  -8 1268.69 183.315   1
   7  -2  -8 1151.70 152.471   2
  -7  -2  -8 950.254 146.174   1
   7   2  -8 1006.71 117.600   4
   7   2  -7 9709.30 367.011   9
  -7   2  -7 10531.3 525.054   1
  -7  -2  -7 9544.13 473.579   1
  -7  -2  -7 9872.54 371.590   4
   7   2  -7 9921.35 413.422   4
   7  -2  -7 9924.05 375.183   8
   7  -2  -7 10129.1 456.616   2
  -7   2  -7 9922.56 295.150   6
  -7  -2  -6 2282.62 196.524   5
   7   2  -6 2527.33 161.437   9
  -7   2  -6 2472.35 225.504   1
  -7  -2  -6 2079.20 148.026   4
  -7  -2  -6 2373.33 204.568   1
   7  -2  -6 2385.51 158.078   8
  -7   2  -6 2504.68 183.756   7
   7  -2  -6 2482.49 197.707   2
  -7   2  -6 2357.14 167.684   3
  -7   2  -6 2516.61 129.240   6
   7   2  -6 2431.42 179.242   4
   7   2  -5 8010.84 355.606   4
  -7  -2  -5 8153.71 334.532   4
  -7   2  -5 8997.84 431.711   1
   7  -2  -5 8492.51 334.750   8
  -7  -2  -5 9002.58 398.731   1
   7   2  -5 8856.54 340.800   9
  -7   2  -5 8295.01 355.925   7
   7  -2  -5 8277.79 379.831   2
  -7   2  -5 8599.50 331.257   3
  -7   2  -5 8286.11 296.971   6
  -7  -2  -5 8031.93 377.770   5
  -7  -2  -4 5116.94 264.903   9
  -7  -2  -4 4881.68 241.837   4
   7   2  -4 4937.15 257.430   4
   7  -2  -4 5012.68 242.636   8
  -7   2  -4 5224.06 301.214   1
   7  -2  -4 4912.89 269.414   2
  -7  -2  -4 5377.40 277.355   1
  -7   2  -4 4779.69 253.237   7
  -7   2  -4 5047.05 220.474   6
  -7   2  -4 4949.13 216.583   3
   7   2  -4 5244.97 248.037   9
  -7  -2  -4 4945.37 272.869   5
   7   2  -4 5333.81 268.064   3
  -7  -2  -3 24908.3 758.504   5
  -7  -2  -3 24068.5 741.496   9
   7   2  -3 23879.5 713.268   9
   7  -2  -3 24986.8 751.485   9
  -7  -2  -3 23649.3 717.321   4
   7   2  -3 25869.2 760.513   8
   7  -2  -3 23513.6 741.954   2
  -7   2  -3 23151.1 722.274   7
  -7   2  -3 25665.4 791.741   1
   7  -2  -3 25459.9 746.491   6
  -7   2  -3 22891.1 679.351   6
  -7   2  -3 23187.1 641.440   3
   7   2  -3 23570.5 731.816   4
   7   2  -3 22791.6 727.851   3
   7   2  -2 8579.02 348.793   9
  -7   2  -2 10013.3 412.136  10
   7   2  -2 9984.71 384.087   3
  -7  -2  -2 9536.91 363.217   4
   7   2  -2 8673.65 360.493   4
   7   2  -2 9892.33 378.979   8
   7  -2  -2 8562.15 364.258   2
   7   2  -2 8772.95 291.417   7
  -7   2  -2 8879.74 358.609   7
  -7  -2  -2 8863.18 376.623   5
  -7   2  -2 8733.51 334.244   6
  -7   2  -2 8630.51 267.715   3
   7  -2  -1 21456.6 677.702  10
  -7   2  -1 20378.3 664.049  10
  -7  -2  -1 20557.3 616.548  10
   7   2  -1 19442.6 618.057   9
  -7  -2  -1 19991.2 622.260   4
   7   2  -1 19878.6 626.052   4
   7   2  -1 21088.5 631.298   8
   7  -2  -1 18460.5 622.720   2
   7   2  -1 20323.8 561.080   7
  -7  -2  -1 19674.2 503.818   2
  -7   2  -1 19537.0 601.878   6
  -7   2  -1 18841.1 482.180   3
   7   2  -1 19574.9 652.416   5
  -7  -2  -1 20032.2 656.012   5
   7   2   0 20812.9 626.618  10
  -7  -2   0 21475.8 646.560  10
   7  -2   0 20181.2 658.031   2
   7   2   0 20385.6 647.351   9
   7  -2   0 21543.2 643.901   9
   7   2   0 20345.4 649.318   4
  -7  -2   0 20431.4 638.717   8
   7   2   0 21634.8 641.891   8
   7   2   0 20583.1 602.499   7
   7  -2   0 22355.1 698.528  10
  -7   2   0 21843.4 691.023  10
   7  -2   0 21587.9 646.063   6
  -7  -2   0 20488.2 560.456   2
  -7   2   0 20843.0 638.090   6
   7   2   0 21850.4 660.253   1
   7   2   0 21868.8 705.523   5
  -7  -2   0 18821.3 681.184   5
  -7  -2   1 19296.9 606.006  10
  -7   2   1 18083.0 629.105  10
   7  -2   1 19074.5 642.886  10
   7  -2   1 19775.6 588.481   9
   7   2   1 18493.2 581.156  10
  -7  -2   1 18773.3 597.198   8
   7   2   1 18534.4 595.033   4
   7  -2   1 18608.7 615.631   2
   7   2   1 19391.8 577.616   8
   7   2   1 18437.9 603.142   1
   7   2   1 17806.0 597.372   9
   7  -2   1 19132.5 584.077   6
  -7  -2   1 17620.2 533.150   2
  -7   2   1 17380.0 584.909   6
   7   2   1 19852.9 663.289   5
  -7  -2   1 19248.0 663.777   5
   7  -2   2 10026.4 289.759   3
   7   2   2 9265.81 377.615   9
  -7   2   2 10093.3 412.738  10
   7   2   2 9659.53 389.180   1
  -7  -2   2 9473.40 385.927  10
   7  -2   2 10175.6 360.398   9
   7   2   2 9217.07 364.724   4
   7   2   2 9341.06 342.607   8
   7  -2   2 10186.0 422.556  10
   7   2   2 9998.71 369.084   7
   7   2   2 9590.45 378.376  10
   7  -2   2 9719.03 353.400   6
  -7   2   2 9326.91 373.394   6
   7  -2   2 9514.07 268.582   5
  -7   2   2 9386.24 257.359   3
   7  -2   2 10080.0 404.332   1
   7  -2   2 9563.88 269.975   5
   7  -2   2 9372.03 396.352   2
  -7  -2   2 9543.47 419.931   5
   7   2   2 10773.1 431.712   5
  -7   2   2 9005.27 264.324   5
  -7  -2   3 25794.2 807.358  10
  -7   2   3 25079.8 816.710  10
  -7   2   3 26505.7 676.667   5
   7   2   3 24719.3 778.644   9
   7  -2   3 25420.8 830.325  10
   7  -2   3 25336.4 732.428   9
   7  -2   3 24263.1 807.443   2
   7   2   3 25516.9 764.227   4
  -7  -2   3 24655.3 783.680   8
   7   2   3 25442.2 716.947   8
   7   2   3 27744.9 788.037   7
   7  -2   3 26236.5 737.234   6
  -7  -2   3 26467.4 762.729   2
  -7   2   3 25107.3 774.461   6
  -7   2   3 25865.8 659.628   3
   7  -2   3 27342.9 833.599   1
  -7  -2   3 25556.2 820.085   5
   7  -2   3 26124.8 689.190   3
   7   2   3 27215.7 812.202   1
   7   2   3 27676.2 824.146   5
  -7  -2   4 4538.18 276.901  10
  -7   2   4 4119.80 264.250  10
  -7   2   4 3981.85 188.617   5
   7   2   4 4772.00 267.645  10
   7  -2   4 4701.14 284.486  10
   7   2   4 3878.43 232.848   9
   7  -2   4 4152.52 200.309   9
   7   2   4 4505.21 233.993   4
  -7  -2   4 4132.56 245.664   8
   7   2   4 4400.01 195.181   8
   7  -2   4 4183.60 193.450   4
  -7  -2   4 4441.44 239.123   2
  -7   2   4 4140.95 236.435   6
   7  -2   4 4539.14 277.789   1
  -7   2   4 4459.62 183.972   3
   7   2   4 4450.92 262.538   1
  -7  -2   4 4276.26 260.621   5
   7  -2   4 4646.17 204.699   3
   7   2   4 4342.55 254.795   5
   7   2   5 9189.25 421.940  10
  -7   2   5 9065.93 425.404  10
   7   2   5 8537.38 375.011   9
   7  -2   5 9073.71 316.215   9
  -7  -2   5 7866.81 373.927   8
   7   2   5 8595.01 299.069   8
   7   2   5 9264.35 371.489   4
   7  -2   5 8670.84 303.900   4
   7   2   5 9257.17 415.454   1
  -7   2   5 8681.36 376.588   6
  -7   2   5 8597.80 316.130   3
  -7  -2   5 8489.53 397.762   5
   7  -2   5 9269.07 343.232   3
  -7   2   6 1991.40 150.117   5
   7  -2   6 2091.80 122.513   9
  -7  -2   6 2041.05 180.674   8
   7   2   6 2231.02 118.284   8
   7  -2   6 2510.35 125.451   4
   7   2   6 2171.19 170.319   4
   7   2   6 2167.60 176.110   9
  -7   2   6 2155.21 174.464   6
  -7   2   6 2192.36 148.266   3
  -7  -2   6 2222.76 196.016   5
   7  -2   6 2021.65 153.016   3
   7   2   7 10572.5 455.325   9
  -7  -2   7 10377.1 466.106   3
   7  -2   7 10878.0 331.428   9
   7  -2   7 10546.6 327.312   9
  -7  -2   7 10361.6 457.666   8
   7   2   7 11107.9 316.002   8
   7   2   7 10346.5 427.197   4
   7   2   7 9696.80 451.812   3
  -7   2   7 10039.0 433.500   6
  -7   2   7 10232.1 404.487   3
  -7  -2   7 10222.3 475.023   5
   7  -2   7 10035.0 416.943   3
   7  -2   8 1035.45 128.217   3
  -7   2   8 944.157 113.752   3
  -7  -2   8 900.888 135.461   3
   7   2   8 931.777 132.081   3
   7   2   8 824.301 128.214   9
  -7  -2   8 809.259 118.064   8
   7   2   8 1030.95 111.918   4
  -7   2   8 757.755 110.236   6
  -7  -2   9 3369.72 268.585   3
   7   2   9 3714.05 271.926   9
  -7  -2   9 3229.19 247.482   8
   7   2   9 3459.33 266.066   3
  -7   2   9 3371.24 232.405   6
  -7   2   9 3065.90 227.044   3
   7  -2   9 3083.97 235.769   3
   7   2  10 571.050 118.458   3
  -7   2  10 464.501 103.069   3
   7  -2  10 517.582 113.019   3
  -7  -2  10 620.438 129.440   3
   7   2  10 415.065 109.551   9
  -7  -2  10 609.513 116.810   8
  -7   2  10 524.168 92.0020   6
  -7  -2  11 3532.01 302.251   3
  -7  -2  11 2802.79 245.740   8
  -7   2  11 2518.16 233.524   3
   7  -2  11 3262.85 270.595   3
  -7   2  12 2113.54 222.480   3
  -7  -3 -11 2690.40 275.438   1
   7  -3 -11 2695.06 290.114   1
   7  -3 -10 322.862 107.968   2
  -7  -3 -10 197.907 67.2203   1
  -7   3  -9 2368.06 262.644   1
  -7  -3  -9 1903.67 209.764   1
   7   3  -9 2117.42 188.710   4
   7  -3  -9 2121.53 223.533   2
   7  -3  -8 1004.81 141.934   2
   7   3  -8 1430.91 153.433   4
  -7   3  -8 1400.22 191.685   1
  -7  -3  -8 1123.74 148.699   1
   7   3  -7 9383.93 369.537   9
  -7   3  -7 9524.37 489.497   1
   7   3  -7 8697.37 408.069   4
  -7  -3  -7 8930.93 431.857   1
  -7   3  -7 9141.26 406.179   7
  -7  -3  -7 9128.05 470.436   5
   7  -3  -7 8663.91 443.193   2
  -7   3  -7 9200.47 330.840   6
   7  -3  -6 223.123 70.5290   2
  -7  -3  -6 172.845 64.7696   5
   7   3  -6 88.2374 40.2347   9
  -7  -3  -6 122.236 53.3881   1
   7  -3  -6 195.751 51.9823   8
   7   3  -6 185.227 62.4373   4
  -7   3  -6 167.220 64.3449   7
  -7   3  -6 221.789 78.0372   1
  -7   3  -6 142.239 42.3464   6
  -7  -3  -5 6804.14 379.729   5
   7   3  -5 6394.71 304.064   9
   7   3  -5 6662.11 337.313   4
   7  -3  -5 6979.37 309.973   8
  -7   3  -5 6698.02 365.478   1
   7  -3  -5 7059.76 365.976   2
  -7   3  -5 6680.58 329.776   7
  -7  -3  -5 6896.52 325.759   1
  -7   3  -5 6808.19 296.600   6
  -7   3  -5 6977.64 304.274   3
  -7  -3  -4 3100.10 239.875   5
   7   3  -4 3374.46 208.525   9
   7   3  -4 3440.63 227.307   4
  -7   3  -4 3606.59 244.365   1
   7  -3  -4 3343.22 237.934   2
  -7   3  -4 3628.51 224.992   7
  -7   3  -4 3411.46 201.875   6
  -7  -3  -3 13455.8 549.769   5
   7   3  -3 12877.0 485.692   9
   7   3  -3 13111.2 509.619   4
   7  -3  -3 13331.0 531.046   2
  -7   3  -3 13631.2 505.629   7
  -7   3  -3 13319.9 508.783   1
  -7   3  -3 13447.5 482.732   6
  -7   3  -3 13706.8 429.856   3
   7   3  -2 6950.74 323.687   9
  -7  -3  -2 6777.15 222.069   2
   7   3  -2 6832.78 334.804   4
  -7  -3  -2 6915.65 301.921   8
   7  -3  -2 6853.15 348.508   2
  -7   3  -2 6210.15 317.489   7
  -7  -3  -2 6382.25 353.333   5
   7   3  -2 7142.61 252.392   7
  -7   3  -2 7305.96 326.213   6
  -7  -3  -2 6686.54 208.696   2
  -7   3  -2 7120.25 250.473   3
  -7   3  -1 10444.4 421.400  10
   7   3  -1 9874.46 412.204   9
   7   3  -1 10542.8 430.261   4
  -7  -3  -1 9729.17 391.347   8
   7  -3  -1 10732.3 451.638   2
   7   3  -1 10182.4 349.789   7
  -7   3  -1 10308.6 412.149   6
  -7  -3  -1 9936.36 314.791   2
  -7   3  -1 10106.1 309.083   3
  -7  -3  -1 9156.24 443.379   5
   7  -3   0 894.244 53.1126   5
  -7  -3   0 832.994 124.866   5
  -7  -3   0 934.388 86.5438  10
  -7   3   0 924.007 110.301  10
   7   3   0 840.255 109.661   9
   7  -3   0 890.735 113.947   9
   7  -3   0 984.722 120.205   4
   7   3   0 1075.04 116.829   8
   7   3   0 950.763 97.3547   1
   7   3   0 817.692 107.266   4
   7  -3   0 1094.14 129.589  10
  -7  -3   0 1027.30 84.9423   2
  -7   3   0 832.343 107.808   6
  -7  -3   0 860.989 102.787   8
  -7   3   0 876.726 63.3799   3
   7  -3   0 909.419 126.153   2
   7  -3   1 9109.04 275.489   5
  -7   3   1 9244.24 289.948   3
   7   3   1 9383.25 333.962  10
  -7   3   1 8800.95 387.050  10
   7   3   1 9478.89 408.621   9
  -7  -3   1 9886.64 355.498  10
   7  -3   1 9430.84 387.183   9
   7  -3   1 9452.32 404.542  10
   7   3   1 9384.59 364.445   1
   7  -3   1 8655.48 420.076   2
   7   3   1 9789.32 411.401   4
  -7  -3   1 9329.24 397.318   8
   7   3   1 10128.1 385.842   8
   7  -3   1 9581.10 390.337   4
   7   3   1 9938.86 375.554   7
  -7   3   1 9369.08 401.590   6
  -7  -3   1 10484.8 472.747   5
   7  -3   2 7654.78 361.407  10
  -7   3   2 7405.76 351.983  10
   7   3   2 8333.94 331.563   1
  -7  -3   2 8108.18 350.969   9
   7   3   2 7652.18 362.974   9
   7  -3   2 7849.56 336.169   9
   7  -3   2 7380.08 384.273   2
   7   3   2 7502.53 356.756   4
  -7  -3   2 7196.70 350.848   8
   7   3   2 7600.09 320.600   8
   7   3   2 7568.81 302.061  10
   7   3   2 8102.07 344.504   7
   7  -3   2 8069.35 341.095   4
  -7  -3   2 8310.87 330.024  10
  -7   3   2 7286.05 352.154   6
  -7  -3   2 7227.53 314.150   2
   7  -3   2 7625.97 344.751   1
  -7   3   2 7713.68 264.654   5
   7  -3   2 7643.56 266.209   5
  -7  -3   2 7568.77 405.675   5
   7   3   3 11886.8 458.886  10
   7   3   3 13365.6 532.319   9
   7  -3   3 13567.1 484.703   9
   7  -3   3 13698.8 568.199   2
  -7  -3   3 13437.0 533.799   8
   7   3   3 13393.2 523.474   4
   7   3   3 14582.5 473.034   8
   7  -3   3 13603.0 487.533   4
  -7   3   3 14265.0 535.486  10
  -7  -3   3 14175.0 503.196  10
   7  -3   3 14102.0 544.261  10
  -7   3   3 13820.2 529.725   6
  -7   3   3 14285.2 418.502   3
   7  -3   3 14610.3 533.800   1
  -7  -3   3 14578.0 506.104   2
   7   3   3 14288.0 495.747   1
   7  -3   3 14477.4 433.694   5
  -7  -3   3 12894.0 571.486   5
  -7   3   3 14188.8 427.660   5
  -7   3   4 3528.97 242.591  10
   7   3   4 3713.70 252.850   9
   7  -3   4 3704.30 206.818   9
   7  -3   4 3912.39 203.678   3
  -7  -3   4 3513.21 246.242   8
   7   3   4 3456.82 236.889   4
   7   3   4 3676.73 189.701   8
   7  -3   4 3651.44 211.171   4
  -7  -3   4 3835.40 242.070  10
   7   3   4 3445.55 217.808   1
  -7   3   4 3456.13 237.776   6
  -7   3   4 3906.42 182.846   3
   7  -3   4 3841.14 190.571   5
  -7  -3   4 3947.78 280.489   5
  -7   3   4 3784.33 187.104   5
   7  -3   5 6587.54 297.375   3
  -7   3   5 6787.36 287.090   5
  -7   3   5 5975.86 341.026  10
   7   3   5 6760.97 358.747   9
   7   3   5 6716.32 331.272  10
  -7  -3   5 6212.19 350.776   8
   7   3   5 6344.20 342.421   4
   7  -3   5 6204.32 287.499   4
   7   3   5 6614.73 257.072   8
   7   3   5 6463.57 323.794   1
  -7   3   5 6252.58 335.070   6
  -7   3   5 6433.31 272.108   3
   7  -3   5 6463.39 280.214   9
  -7  -3   5 6587.55 378.253   5
  -7   3   6 139.120 46.8713   3
  -7   3   6 21.4603 64.5891  10
  -7   3   6 250.270 60.8256   5
   7  -3   6 89.7063 53.1622   3
   7   3   6 204.481 72.3302   9
   7  -3   6 205.164 51.5238   9
  -7  -3   6 189.135 85.1169   8
   7  -3   6 173.313 47.1668   4
   7   3   6 168.641 69.8037   4
  -7   3   6 161.108 58.6139   6
  -7  -3   6 126.942 56.7742   5
   7   3   7 8793.66 454.034   9
  -7  -3   7 9347.48 462.005   8
   7   3   7 9328.57 437.082   4
  -7   3   7 8544.15 454.437  10
  -7   3   7 9377.90 435.089   6
  -7   3   7 9084.68 384.349   3
  -7  -3   7 8879.94 471.236   5
   7  -3   7 9161.56 404.117   3
   7  -3   8 960.440 130.832   3
  -7  -3   8 1126.88 159.016   8
  -7  -3   8 847.080 142.721   5
   7   3   8 1296.43 153.112   4
   7   3   8 1082.44 149.979   3
  -7   3   8 1216.74 136.659   3
  -7   3   8 912.076 132.437   6
   7   3   8 1080.62 160.718   9
   7   3   9 2100.39 225.341   9
  -7  -3   9 2184.27 225.626   8
   7   3   9 2503.85 239.729   3
  -7   3   9 2289.41 204.466   6
  -7   3   9 2053.36 186.303   3
  -7  -3   9 2264.77 245.451   5
   7  -3   9 2390.00 212.044   3
  -7   3  10 422.572 101.532   3
   7  -3  10 288.308 87.3341   3
   7   3  10 556.556 125.377   9
  -7  -3  10 422.991 112.658   8
  -7   3  10 295.510 87.6192   6
  -7  -3  11 2504.92 257.330   8
   7  -3  11 2897.97 281.027   8
  -7   3  11 2856.06 251.582   3
   7  -4  -9 232.008 95.5773   2
  -7   4  -9 189.464 82.9682   1
   7   4  -9 347.517 126.591   1
  -7  -4  -8 755.409 145.864   5
   7  -4  -8 687.612 140.117   2
   7   4  -8 707.980 118.929   4
  -7   4  -8 678.972 134.136   1
   7   4  -7 1734.05 155.512   9
   7  -4  -7 1490.83 183.146   2
  -7  -4  -7 1337.24 186.868   5
  -7   4  -7 1308.68 149.859   7
   7   4  -7 1425.77 165.279   4
  -7  -4  -7 1580.62 157.786   1
  -7   4  -7 1543.79 185.271   1
  -7   4  -6 1046.49 145.518   1
   7  -4  -6 1490.24 182.122   2
   7   4  -6 1339.94 140.864   9
  -7  -4  -6 1186.23 175.371   5
   7   4  -6 1316.36 159.499   4
  -7   4  -6 1204.28 139.298   7
  -7   4  -6 1128.73 128.616   6
   7  -4  -5 728.130 128.460   2
  -7  -4  -5 935.915 152.975   5
   7   4  -5 821.634 117.567   9
   7   4  -5 551.598 108.650   4
  -7   4  -5 788.615 115.943   7
  -7   4  -5 727.143 106.186   1
  -7   4  -5 577.001 96.7113   6
   7  -4  -4 78.9839 79.1999   2
  -7  -4  -4 15.4773 48.7288   5
   7   4  -4 35.9664 39.0599   9
  -7  -4  -4 8.74123 32.7659   8
   7   4  -4 39.5155 57.7399   4
  -7   4  -4 56.8201 58.4264   7
  -7   4  -4 20.1115 42.6969   6
  -7   4  -4 54.9005 50.7208   1
  -7  -4  -3 1536.62 183.912   5
   7   4  -3 1657.75 168.518   9
  -7  -4  -3 1671.22 144.820   8
   7   4  -3 1655.14 178.443   4
  -7  -4  -3 1732.93 97.6312   2
   7  -4  -3 1657.35 182.035   2
  -7   4  -3 1652.35 165.546   7
   7   4  -3 1798.59 99.3223   7
   7  -4  -3 1671.24 131.638   1
  -7   4  -3 1585.89 161.836   6
  -7   4  -3 1559.86 128.759   3
   7  -4  -2 1389.26 164.584   2
  -7  -4  -2 1168.21 158.755   5
   7   4  -2 1195.12 140.781   9
  -7  -4  -2 1093.78 92.9942   2
  -7  -4  -2 1086.28 124.263   8
   7   4  -2 1401.38 161.673   4
   7   4  -2 1206.06 97.8218   7
  -7   4  -2 1302.77 148.596   6
   7   4  -1 232.908 58.3680   1
  -7  -4  -1 431.898 104.058   5
  -7   4  -1 303.574 50.7369   3
   7  -4  -1 359.210 52.2099   5
   7   4  -1 289.235 76.1519   9
  -7  -4  -1 203.667 59.8991   8
  -7   4  -1 181.195 52.2121  10
   7   4  -1 204.394 68.3403   4
  -7   4  -1 279.113 70.9897   6
   7  -4  -1 78.8857 50.9298   2
  -7  -4   0 8.67396 44.4403   5
   7  -4   0 64.5588 32.1459   5
  -7   4   0 72.5876 29.5396   3
   7   4   0 34.5057 54.9665   9
  -7  -4   0 23.4065 51.1166   8
   7   4   0 43.1516 46.4566   4
  -7   4   0 16.8876 41.0335  10
   7   4   0 57.8283 38.6434   7
   7   4   0 96.5620 41.5590   1
  -7   4   0 100.887 57.7976   6
   7  -4   0 35.4580 47.9422   2
   7   4   1 280.453 52.1806   1
  -7  -4   1 250.033 40.1691  10
  -7  -4   1 317.400 99.3557   5
   7  -4   1 251.303 76.7645  10
  -7   4   1 333.252 73.2713  10
   7  -4   1 409.210 53.9949   5
  -7   4   1 294.362 56.5351   3
   7   4   1 343.913 87.5011   9
  -7  -4   1 191.495 64.9258   8
   7   4   1 396.788 100.533   4
  -7   4   1 341.111 88.2314   6
   7  -4   1 174.786 86.5263   2
   7   4   2 1349.55 161.345   9
   7  -4   2 1322.18 135.597  10
  -7  -4   2 1228.69 99.3584  10
  -7  -4   2 1273.42 169.565   5
  -7   4   2 1278.06 133.465  10
   7  -4   2 1060.44 117.349   1
  -7  -4   2 940.261 141.021   8
   7   4   2 1237.93 154.223   4
  -7   4   2 1272.20 155.964   6
   7   4   2 1421.43 112.445   1
   7  -4   2 1138.55 155.378   2
  -7   4   2 1607.94 113.514   5
   7  -4   2 1382.03 108.444   5
  -7  -4   3 1609.25 128.948  10
   7  -4   3 1363.74 144.793  10
  -7   4   3 1476.31 149.310  10
  -7  -4   3 1414.83 187.976   5
   7   4   3 1642.50 176.293   9
  -7  -4   3 1477.66 174.732   8
   7   4   3 1622.32 176.086   4
   7   4   3 1465.64 108.439  10
   7  -4   3 1580.65 148.448   1
   7   4   3 1468.44 119.281   1
  -7   4   3 1681.39 181.731   6
   7  -4   3 1420.20 172.389   2
  -7   4   3 1348.05 116.603   5
   7  -4   3 1671.58 130.450   5
  -7   4   4-15.0907 26.2281   3
   7  -4   4 42.9819 39.8760   5
  -7  -4   4 72.9086 54.0341  10
  -7  -4   4 154.789 82.7289   5
  -7   4   4 64.1766 42.9555   5
   7  -4   4 65.2360 71.8344   2
  -7   4   4 81.8226 60.7181  10
   7   4   4 108.920 68.7921   9
  -7  -4   4 77.7362 69.3078   8
   7   4   4-59.7868 54.6726   4
  -7   4   4 11.3456 44.4552   6
   7   4   4 9.66067 40.1777   1
  -7   4   5 618.152 109.381  10
   7  -4   5 638.637 92.8539   5
  -7  -4   5 677.969 143.234   5
  -7  -4   5 592.770 106.354  10
   7   4   5 589.680 115.149   9
  -7  -4   5 659.038 128.358   8
  -7   4   5 762.930 96.1394   3
   7   4   5 454.556 107.702   4
  -7   4   5 656.270 125.166   6
  -7   4   6 1080.90 145.541  10
  -7  -4   6 1055.57 170.910   5
  -7  -4   6 1455.58 163.378  10
   7   4   6 1134.14 163.871   9
  -7  -4   6 925.251 158.333   8
   7   4   6 1195.71 164.043   4
  -7   4   6 1273.95 129.396   3
  -7   4   6 1111.53 155.141   6
   7  -4   6 1360.68 142.636   5
  -7   4   7 1217.51 165.036  10
  -7  -4   7 1389.87 199.139   5
   7   4   7 1545.12 195.780   9
  -7  -4   7 1543.34 197.585   8
   7   4   7 1679.35 189.064   4
  -7   4   7 1496.65 149.559   3
  -7   4   7 1315.04 170.712   6
   7  -4   7 1358.93 148.790   5
   7  -4   8 744.466 120.691   5
  -7  -4   8 739.857 158.676   5
   7  -4   8 893.683 141.147   3
   7   4   8 811.977 148.373   9
  -7  -4   8 850.985 146.013   8
  -7   4   8 653.716 138.210  10
   7   4   8 712.302 129.388   4
  -7   4   8 1024.55 157.569   6
  -7   4   8 869.498 123.763   3
   7  -4   9 351.171 108.018   3
  -7   4   9 314.067 108.962  10
   7   4   9 314.046 102.468   9
  -7   4   9 190.033 71.4508   6
   7  -4   9 349.440 91.9615   5
  -7   4  10 557.480 149.272  10
   7   4  10 414.302 127.510   9
  -7   4  10 477.329 118.680   6
  -7   5  -8 15.4008 69.4551   1
   7   5  -8 8.38343 67.9174   4
   7  -5  -7 1347.73 199.732   2
  -7   5  -7 1322.99 170.227   1
   7   5  -7 1251.08 177.301   4
  -7   5  -6 904.824 133.695   1
  -7  -5  -6 846.427 166.274   5
   7   5  -6 896.235 131.084   9
   7  -5  -6 855.549 154.665   2
   7   5  -6 882.634 149.591   4
  -7   5  -6 815.762 128.941   6
   7  -5  -5 1664.47 206.510   2
   7   5  -5 1803.99 187.939   9
  -7  -5  -5 2003.12 241.528   5
  -7   5  -5 1553.59 173.095   7
   7   5  -5 1812.71 211.288   4
  -7   5  -5 1956.80 198.261   6
  -7   5  -5 2048.64 180.960   1
  -7  -5  -4 913.753 159.281   5
   7  -5  -4 1005.29 163.117   2
  -7  -5  -4 1188.33 131.165   8
  -7   5  -4 1057.01 148.210   7
   7   5  -4 883.533 140.996   9
   7   5  -4 1289.83 173.115   4
  -7   5  -4 957.797 141.783   6
  -7  -5  -3 3572.78 309.011   5
   7   5  -3 3708.39 281.347   9
  -7  -5  -3 3790.84 253.982   8
   7   5  -3 4118.47 310.808   4
   7  -5  -3 3384.68 293.654   2
  -7   5  -3 3775.72 274.428   7
  -7   5  -3 3565.00 279.263   6
   7  -5  -2 1326.47 179.166   2
   7  -5  -2 1269.45 120.330   5
  -7  -5  -2 1324.18 185.910   5
   7   5  -2 1603.79 183.824   9
  -7  -5  -2 1549.00 162.853   8
   7   5  -2 1456.84 185.276   4
  -7   5  -2 1025.86 153.192   6
  -7  -5  -1 6350.46 402.591   5
   7   5  -1 5561.73 361.657   9
  -7  -5  -1 6033.14 293.599   2
  -7  -5  -1 5396.13 333.169   8
   7  -5  -1 5741.00 384.341   2
   7   5  -1 5474.81 371.275   4
   7  -5  -1 5429.64 259.943   5
  -7   5  -1 5669.83 366.429   6
  -7  -5   0 623.691 136.038   5
   7  -5   0 413.799 65.5103   5
   7   5   0 373.139 112.153   9
  -7  -5   0 188.638 89.3511   8
   7   5   0 473.531 106.195   4
  -7   5   0 348.220 101.343   6
   7  -5   0 593.957 121.301   2
   7  -5   1 6085.80 268.328   5
  -7   5   1 5811.35 287.201  10
   7   5   1 5629.11 373.779   9
   7  -5   1 5558.57 376.265   2
  -7  -5   1 4761.20 335.896   8
   7   5   1 5616.42 377.482   4
  -7   5   1 4999.60 354.460   6
  -7  -5   1 5914.88 389.660   5
  -7   5   2 1277.45 130.730  10
  -7  -5   2 1072.35 168.247   5
   7   5   2 1073.05 162.974   9
  -7  -5   2 1047.16 163.581   8
   7   5   2 1096.14 161.414   4
  -7   5   2 1130.28 168.119   6
   7  -5   2 1236.99 175.638   2
   7  -5   2 1170.68 112.277   5
  -7   5   3 3965.35 245.262  10
   7   5   3 3659.24 311.231   9
   7  -5   3 3783.35 317.007   2
  -7  -5   3 4088.23 320.547   8
   7   5   3 3545.88 302.556   4
  -7   5   3 3582.79 302.446   6
  -7  -5   3 3780.30 328.212   5
   7  -5   3 4217.86 235.116   5
  -7   5   4 1245.67 142.404  10
   7  -5   4 1136.23 130.655   5
  -7  -5   4 1285.10 197.931   5
   7   5   4 1049.00 175.266   9
  -7  -5   4 883.489 149.516   8
   7   5   4 1051.27 163.064   4
  -7   5   4 1077.17 167.585   6
   7  -5   4 1099.19 173.118   2
  -7  -5   5 1656.86 228.782   5
   7   5   5 1992.68 234.061   9
   7  -5   5 2179.38 239.144   2
  -7  -5   5 1977.49 231.046   8
   7   5   5 2265.61 236.704   4
  -7   5   5 1845.76 227.103   6
  -7  -5   6 925.016 180.637   5
   7   5   6 765.540 155.999   9
  -7  -5   6 814.047 170.315   8
   7   5   6 1088.22 166.848   4
  -7   5   6 674.437 142.651   6
   7   5   7 1776.11 215.825   4
  -7   5   7 1349.95 195.120   6
   7   5   8 167.303 75.1271   6
   7   5   8 144.462 85.1040   4
  -7   6  -5 2131.06 230.901   6
   7   6  -4 210.936 83.5771   9
  -7   6  -4 204.187 86.1655   6
   7   6  -3 3781.59 315.230   9
   7   6  -3 4079.96 349.199   4
   7  -6  -3 3972.59 344.808   2
  -7   6  -3 3374.00 279.259   7
  -7   6  -3 4092.76 326.331   6
   7  -6  -2 60.6712 79.7939   2
   7   6  -2 154.089 96.5465   9
  -7  -6  -2-10.2191 55.5605   8
   7   6  -2-57.4583 66.6197   4
  -7   6  -2 67.5821 54.3025   6
  -7  -6  -1 3797.32 329.483   5
  -7  -6  -1 2617.20 254.252   8
   7  -6  -1 4109.63 338.028   2
   7   6  -1 3193.85 310.657   4
   7   6  -1 4116.96 339.783   9
  -7   6  -1 3577.85 311.207   6
  -7  -6   0 1915.03 228.085   5
   7   6   0 2320.50 257.533   9
   7   6   0 2005.03 245.710   4
  -7  -6   0 1640.58 199.968   8
  -7   6   0 1872.48 225.511   6
   7  -6   0 1671.67 215.863   2
   7   6   1 3668.60 330.395   9
   7  -6   1 3644.09 319.808   2
  -7  -6   1 3094.18 285.659   8
   7   6   1 3395.17 321.124   4
  -7   6   1 3949.97 336.249   6
  -7  -6   1 3910.21 334.026   5
  -7  -6   2 75.1625 64.3182   8
  -8   0 -11 358.452 111.735   1
  -8   0 -10 11432.5 648.290   1
   8   0 -10 11125.4 482.947   4
  -8   0  -9 746.234 155.288   1
   8   0  -9 537.102 98.1165   4
  -8   0  -8 10238.3 551.447   1
   8   0  -8 9727.55 469.827   2
   8   0  -7 1069.57 140.119   2
  -8   0  -7 874.956 143.407   1
  -8   0  -6 14858.1 650.831   1
   8   0  -6 16585.2 559.898   8
   8   0  -6 16139.2 535.917   3
   8   0  -6 16013.4 595.152   2
  -8   0  -5 5097.66 327.137   1
   8   0  -5 5669.67 273.734   8
   8   0  -5 5663.29 275.345   6
   8   0  -5 5150.57 282.494   2
   8   0  -5 5439.52 244.537   3
   8   0  -4 26512.4 764.675   8
  -8   0  -4 23246.2 827.856   1
  -8   0  -4 23832.8 758.084   7
   8   0  -4 24524.1 764.521   2
   8   0  -4 27089.2 765.570   6
   8   0  -4 25203.2 696.205   3
  -8   0  -3 3537.43 173.533   5
   8   0  -3 3730.51 207.411   8
  -8   0  -3 3500.62 204.506   7
  -8   0  -3 3654.81 241.443   1
   8   0  -3 3344.68 196.985   2
   8   0  -3 3385.53 156.813   3
  -8   0  -2 41122.5 1033.48   5
  -8   0  -2 37553.8 1170.01  10
  -8   0  -2 41641.5 1102.83   7
   8   0  -2 41362.0 1088.28   2
   8   0  -2 39678.0 1006.16   3
  -8   0  -1 8165.56 265.307   5
  -8   0  -1 7757.01 368.782  10
  -8   0  -1 8204.26 285.264   2
   8   0  -1 8624.10 330.795   8
  -8   0  -1 8148.41 318.968   7
   8   0  -1 8034.61 302.273   2
   8   0  -1 7755.08 245.574   3
  -8   0   0 44491.0 1357.42  10
   8   0   0 51917.3 1308.12   8
  -8   0   0 49082.9 1243.89   2
  -8   0   0 49286.6 1280.21   7
   8   0   0 50615.6 1248.53   2
   8   0   0 49698.4 1277.93   6
   8   0   0 50705.7 1226.25   5
  -8   0   0 50447.3 1221.88   5
  -8   0   1 8203.63 382.256  10
   8   0   1 8028.71 316.169   4
   8   0   1 9005.62 336.626   8
  -8   0   1 8332.15 306.185   2
   8   0   1 8551.19 284.848   2
  -8   0   1 8710.27 319.980   7
   8   0   1 8263.32 308.747   6
   8   0   1 7816.22 301.197   5
  -8   0   1 8773.56 309.520   5
  -8   0   2 41778.4 1211.04  10
   8   0   2 41872.0 1115.80   9
   8   0   2 42830.7 1097.02   4
   8   0   2 41106.3 1040.57   2
  -8   0   2 41265.6 1090.15   7
   8   0   2 41678.1 1079.75   6
  -8   0   2 42677.7 1090.48   5
   8   0   2 42495.7 1084.54   5
   8   0   3 3681.90 179.915   5
  -8   0   3 3088.96 230.542  10
   8   0   3 2987.05 178.871   9
   8   0   3 3291.28 170.731   4
   8   0   3 3295.90 144.846   2
  -8   0   3 3240.70 189.800   2
   8   0   3 3358.05 165.292   3
   8   0   3 3239.13 161.887   6
  -8   0   3 3277.75 173.150   5
  -8   0   4 24969.2 712.080   3
  -8   0   4 23111.8 831.304  10
   8   0   4 25458.9 733.120   5
   8   0   4 24735.3 855.692  10
   8   0   4 24533.6 732.557   9
   8   0   4 25031.1 697.850   4
   8   0   4 26250.2 682.989   2
  -8   0   4 27351.2 785.115   2
   8   0   4 27725.7 785.537   7
   8   0   4 25146.2 721.744   3
   8   0   4 25648.4 691.185   6
   8   0   4 25379.7 859.877   1
   8   0   5 4976.49 235.671   9
   8   0   5 5642.22 226.275   2
   8   0   5 4971.31 202.507   4
  -8   0   5 4846.68 256.373   8
   8   0   5 5159.94 250.542   5
   8   0   5 5080.69 200.993   6
   8   0   5 5287.12 250.260   3
  -8   0   5 4965.42 234.538   3
   8   0   6 17316.9 577.747   5
   8   0   6 16065.8 527.027   9
  -8   0   6 16656.4 575.718   8
   8   0   6 17215.1 476.834   4
   8   0   6 17409.1 462.617   6
   8   0   6 15935.6 560.072   3
  -8   0   6 15591.6 543.108   3
  -8   0   7 939.555 108.687   3
  -8   0   7 907.497 111.736   8
   8   0   7 861.885 67.8324   4
   8   0   7 1189.59 108.754   9
   8   0   7 998.094 52.9528   6
   8   0   7 1168.43 130.034   3
   8   0   8 9898.68 369.754   9
  -8   0   8 9681.57 409.247   8
   8   0   8 9480.12 351.421   2
   8   0   8 8476.16 411.920   3
  -8   0   8 8995.56 406.559   3
   8   0   9 633.256 113.906   3
  -8   0   9 485.824 102.880   3
   8   0   9 516.090 82.0516   9
   8   0  10 11800.7 536.521   3
  -8   0  10 10850.0 504.234   3
   8   0  11 295.353 93.7627   3
  -8   0  11 183.158 79.5917   3
  -8  -1 -11 303.560 110.490   1
  -8   1 -10 3325.87 339.055   1
  -8  -1 -10 4024.58 359.404   1
   8   1 -10 3181.72 232.255   4
   8  -1 -10 3780.93 298.626   2
   8   1  -9 2127.77 158.214   9
  -8   1  -9 2424.87 264.790   1
  -8  -1  -9 2505.49 265.260   1
   8   1  -9 2184.14 186.106   4
   8  -1  -9 2151.03 215.476   2
   8   1  -8 2799.13 182.357   9
   8   1  -8 2743.84 205.872   4
  -8   1  -8 2992.94 287.285   1
  -8  -1  -8 2885.67 271.449   1
   8  -1  -8 3031.15 241.942   2
   8   1  -7 1613.81 136.397   9
   8   1  -7 1559.24 149.363   4
   8  -1  -7 1635.31 140.946   8
  -8   1  -7 1671.88 204.685   1
  -8  -1  -7 1477.98 183.147   1
   8  -1  -7 1555.75 165.249   2
   8  -1  -6 7911.98 332.310   8
   8   1  -6 7119.42 313.977   9
   8   1  -6 7143.62 338.852   4
  -8   1  -6 7331.50 422.844   1
  -8  -1  -6 8005.60 422.213   1
   8  -1  -6 7925.21 377.878   2
   8   1  -5 839.230 96.4322   9
  -8  -1  -5 763.718 125.416   1
   8   1  -5 861.452 96.1162   3
  -8  -1  -5 803.744 100.887   5
   8  -1  -5 740.255 109.191   2
   8  -1  -5 605.473 89.7300   9
   8  -1  -5 840.346 99.3420   8
   8   1  -5 825.466 100.962   4
  -8   1  -5 959.067 112.336   7
   8  -1  -5 954.338 86.1556   3
  -8   1  -5 770.806 129.393   1
   8   1  -4 14226.7 489.409   9
   8   1  -4 14313.7 507.887   4
   8  -1  -4 14809.2 498.888   8
   8   1  -4 16076.8 530.387   8
  -8   1  -4 14280.0 578.574   1
  -8  -1  -4 14580.6 563.496   1
  -8  -1  -4 13950.0 493.992   5
  -8   1  -4 13864.7 502.746   7
   8  -1  -4 14264.5 519.048   2
   8  -1  -4 13601.8 421.068   3
   8  -1  -4 14960.4 512.096   6
   8   1  -4 15103.6 508.777   6
  -8   1  -4 14682.4 441.460   6
   8   1  -4 13845.2 501.883   2
   8   1  -4 14522.4 474.184   3
   8   1  -3 4742.80 237.882   9
   8   1  -3 4835.65 248.577   4
   8  -1  -3 4896.32 242.660   8
   8   1  -3 5187.03 256.413   8
  -8  -1  -3 4707.46 231.952   5
  -8   1  -3 5017.73 250.457   7
   8  -1  -3 4717.75 248.632   2
  -8   1  -3 5061.51 294.852   1
   8  -1  -3 5212.46 252.916   6
  -8  -1  -3 5064.66 280.144   1
  -8   1  -3 4534.64 207.306   6
   8   1  -3 5112.97 248.548   6
   8   1  -3 4801.20 236.740   2
   8   1  -3 4588.67 216.103   3
  -8  -1  -2 11082.2 393.794   5
  -8  -1  -2 11419.7 454.321  10
   8   1  -2 10725.6 412.134   4
   8  -1  -2 11920.6 418.781   8
   8   1  -2 11852.2 425.332   8
   8  -1  -2 11279.0 409.879   2
  -8   1  -2 10879.8 408.877   7
  -8   1  -2 11159.3 473.228  10
  -8   1  -2 11275.9 383.118   6
   8   1  -2 11024.5 383.507   2
   8   1  -2 10816.0 405.626   9
   8   1  -2 11055.1 376.402   3
  -8  -1  -1 1606.27 121.637   5
  -8   1  -1 1596.58 157.477  10
  -8  -1  -1 1667.38 149.901  10
   8   1  -1 1527.70 126.163   9
   8   1  -1 1758.57 135.253   4
  -8  -1  -1 1503.20 82.8298   2
   8   1  -1 1362.38 120.337   8
   8  -1  -1 1483.16 121.028   2
  -8   1  -1 1467.47 123.111   7
  -8  -1  -1 1270.84 113.399   7
  -8   1  -1 1485.50 115.773   6
   8   1  -1 1508.47 106.085   2
   8   1  -1 1648.72 123.085   5
  -8   1   0 24287.4 816.635  10
  -8  -1   0 25545.5 808.876  10
   8   1   0 25793.0 762.144   9
   8   1   0 24703.5 750.755   4
   8   1   0 27899.3 762.649   8
   8  -1   0 24623.2 729.257   2
  -8  -1   0 25574.1 681.298   2
  -8   1   0 25497.4 753.216   7
  -8  -1   0 26022.2 732.883   7
   8  -1   0 26639.9 799.216   1
   8  -1   0 26927.6 743.298   6
  -8   1   0 24981.2 738.300   6
   8   1   0 25773.8 678.131   2
   8   1   0 25331.8 760.404   5
  -8  -1   0 27633.9 769.415   5
  -8   1   1 1587.84 158.652  10
   8   1   1 1732.64 131.307   4
   8   1   1 1471.45 119.468   8
   8  -1   1 1445.52 142.186   1
   8  -1   1 1540.28 117.721   2
   8   1   1 1666.71 154.323   1
  -8  -1   1 1557.73 107.431   2
   8   1   1 1489.08 128.329   9
  -8  -1   1 1793.96 119.617   7
   8  -1   1 1620.37 121.395   6
   8   1   1 1671.02 85.2390   2
  -8   1   1 1606.09 128.053   6
  -8  -1   1 1678.92 156.048  10
   8  -1   1 1672.33 63.1112   3
   8  -1   1 1713.52 71.9602   5
   8   1   1 1450.54 135.239   5
  -8  -1   1 1627.54 142.488   5
  -8   1   1 1640.73 66.4295   5
  -8  -1   2 12172.3 498.079  10
  -8   1   2 13801.1 526.248  10
   8   1   2 13647.6 511.836  10
   8  -1   2 13567.7 514.665   1
   8   1   2 12445.9 500.523   1
   8   1   2 12737.1 439.740   4
   8  -1   2 12544.5 429.497   2
   8   1   2 13275.5 438.362   8
  -8   1   2 13270.1 458.088   2
   8   1   2 12963.8 450.113   7
  -8  -1   2 12677.7 408.518   7
   8  -1   2 13488.4 429.140   6
   8   1   2 12681.0 336.004   2
  -8   1   2 11992.1 447.654   6
   8   1   2 12548.5 455.037   9
   8  -1   2 13103.1 357.138   3
  -8   1   2 13476.4 370.213   5
  -8  -1   2 12461.0 471.223   5
   8   1   2 13856.5 478.591   5
   8  -1   2 13516.9 371.286   5
   8  -1   3 5307.82 303.677   1
  -8   1   3 4956.19 294.197  10
   8  -1   3 4762.41 193.868   5
   8   1   3 5005.18 291.505  10
   8   1   3 4655.69 283.984   1
   8   1   3 4915.22 245.681   9
   8  -1   3 5042.42 238.798   2
   8   1   3 4851.04 226.162   4
  -8  -1   3 4741.40 251.648   8
   8   1   3 5007.80 228.102   8
  -8   1   3 5164.19 256.985   2
  -8  -1   3 5072.74 207.751   7
   8   1   3 5219.19 253.806   7
  -8  -1   3 4921.14 239.650   2
  -8  -1   3 4634.60 285.397  10
   8  -1   3 4866.02 214.990   6
  -8   1   3 4685.42 245.936   6
   8  -1   3 4709.18 188.405   3
  -8  -1   3 5286.38 264.604   5
   8   1   3 5067.21 253.465   5
  -8   1   3 4819.67 176.917   3
  -8  -1   4 13214.0 563.958  10
  -8   1   4 13576.8 563.433  10
   8   1   4 14877.9 580.912  10
   8  -1   4 14677.9 456.881   5
   8   1   4 14189.3 496.242   9
   8  -1   4 14577.0 503.938   2
   8   1   4 14007.8 464.775   4
  -8  -1   4 14184.1 514.961   8
   8   1   4 14387.9 464.578   8
  -8   1   4 14734.8 528.188   2
   8  -1   4 15720.0 522.774   7
  -8  -1   4 15082.5 442.407   7
  -8  -1   4 15270.8 518.643   2
   8  -1   4 14727.1 447.724   6
  -8   1   4 14733.8 513.444   6
   8  -1   4 14270.2 447.334   3
   8  -1   4 15069.7 593.617   1
  -8  -1   4 15173.1 522.056   5
   8   1   4 15250.4 590.918   1
  -8   1   4 14310.4 433.531   3
   8   1   4 15151.6 516.542   5
  -8   1   5 1182.05 168.104  10
   8  -1   5 963.549 90.6425   9
   8   1   5 865.770 100.885   9
   8   1   5 766.190 99.2408   5
   8  -1   5 971.531 77.0883   4
  -8  -1   5 1004.58 111.319   3
   8   1   5 828.411 87.6725   4
   8   1   5 872.591 85.7201   8
  -8  -1   5 885.132 114.505   5
  -8  -1   5 961.359 112.970   8
  -8  -1   5 955.570 81.2935   7
   8  -1   5 781.710 68.7187   6
   8  -1   5 919.339 94.5328   5
  -8   1   5 896.588 108.994   6
   8   1   5 849.509 78.7629   6
   8  -1   5 861.413 89.7361   3
  -8   1   5 914.708 87.0967   3
   8   1   6 7028.17 319.700   9
   8  -1   6 7443.08 325.198   5
   8  -1   6 7296.83 288.069   9
  -8  -1   6 7592.87 348.112   3
   8  -1   6 7710.93 240.225   4
   8   1   6 7688.04 215.428   2
   8   1   6 7669.50 290.201   8
  -8  -1   6 7616.79 355.421   8
   8   1   6 8324.90 309.914   4
  -8  -1   6 7774.19 273.251   7
   8   1   6 7150.31 209.050   2
   8   1   6 6941.38 337.331   3
   8   1   6 7747.22 271.894   6
  -8   1   6 7786.62 348.326   6
   8  -1   6 7591.76 322.602   3
  -8   1   6 7286.77 303.747   3
   8   1   7 1563.34 138.012   9
   8  -1   7 1921.76 123.820   9
   8   1   7 1423.83 108.070   8
  -8  -1   7 1571.51 156.786   8
   8   1   7 1604.98 127.396   4
   8   1   7 1490.30 80.6681   2
   8   1   7 1503.83 150.764   3
   8   1   7 1793.22 100.846   6
  -8   1   7 1301.78 135.658   6
   8  -1   7 1705.09 149.676   3
  -8   1   7 1584.17 135.527   3
  -8  -1   7 1849.37 166.052   3
   8  -1   8 2764.85 147.462   9
   8   1   8 2929.31 204.203   9
  -8  -1   8 2553.92 203.146   8
   8   1   8 2781.39 152.105   4
   8   1   8 2482.58 207.267   3
   8  -1   8 2414.38 196.955   3
  -8   1   8 2458.47 186.845   3
  -8  -1   8 2814.43 215.459   3
   8   1   9 2357.34 190.593   9
  -8  -1   9 2272.98 196.379   8
   8   1   9 2401.33 217.967   3
   8  -1   9 2101.15 194.453   3
  -8   1   9 2361.97 195.000   3
  -8  -1   9 2342.47 208.925   3
  -8  -1  10 3074.01 237.345   8
   8   1  10 3045.60 257.251   3
   8  -1  10 3082.52 249.956   3
  -8   1  10 3041.30 237.241   3
  -8  -1  10 3213.53 262.330   3
   8   1  11 496.170 112.861   3
   8  -1  11 322.436 91.3063   3
  -8   1  11 292.307 88.1697   3
  -8  -1  11 383.969 107.480   3
  -8  -1  11 479.911 103.664   8
  -8   1  12 2731.43 257.331   3
  -8  -2 -11 198.582 94.8220   1
  -8   2 -10 185.742 100.490   1
   8  -2 -10 188.103 87.3626   2
  -8  -2 -10 62.9820 82.8597   1
   8   2 -10 161.006 61.1772   4
   8  -2  -9 481.580 106.804   2
  -8   2  -9 541.966 136.744   1
   8   2  -9 382.092 82.7680   4
  -8  -2  -9 295.619 97.4619   1
   8   2  -8 622.252 82.7654   9
   8  -2  -8 623.095 116.911   2
  -8   2  -8 610.383 135.520   1
   8   2  -8 587.012 94.2148   4
  -8  -2  -8 481.836 107.976   1
   8  -2  -7 407.948 93.8852   2
   8   2  -7 506.053 76.8372   9
   8  -2  -7 377.691 69.1866   8
  -8  -2  -7 478.016 71.0029   4
  -8   2  -7 611.427 132.987   1
   8   2  -7 540.185 92.0199   4
  -8  -2  -7 705.244 127.151   1
  -8  -2  -6 596.621 109.975   1
  -8  -2  -6 476.564 94.8163   5
   8  -2  -6 505.886 93.2835   2
   8   2  -6 598.029 84.2607   9
   8  -2  -6 508.345 78.0714   8
  -8  -2  -6 461.146 71.7083   4
   8   2  -6 547.705 91.1738   4
  -8   2  -6 439.826 82.5765   7
  -8   2  -6 631.277 123.630   1
  -8   2  -6 459.681 55.5165   6
  -8   2  -5 1637.31 176.952   1
  -8  -2  -5 1555.46 154.549   5
   8   2  -5 1478.22 129.525   9
  -8  -2  -5 1527.77 132.670   4
   8   2  -5 1384.93 139.520   4
   8  -2  -5 1768.53 140.975   8
  -8  -2  -5 1545.58 155.952   1
  -8   2  -5 1506.44 141.881   7
   8  -2  -5 1378.10 148.992   2
  -8   2  -5 1639.55 124.668   3
  -8   2  -5 1807.24 120.258   6
  -8  -2  -4 2597.61 194.894   5
  -8  -2  -4 2351.34 166.948   4
   8   2  -4 2236.86 175.301   4
   8  -2  -4 2523.00 171.287   8
   8   2  -4 2457.60 169.433   9
  -8   2  -4 3112.86 237.856   1
  -8   2  -4 2792.42 192.563   7
   8  -2  -4 2561.24 194.087   2
  -8  -2  -4 2608.50 197.834   1
  -8   2  -4 2529.28 144.912   3
  -8   2  -4 2372.46 149.867   6
  -8  -2  -3 2248.54 173.641   5
  -8  -2  -3 2373.25 165.323   4
   8  -2  -3 2122.47 169.137   2
   8   2  -3 2198.03 159.798   9
  -8   2  -3 2178.19 168.578   7
   8   2  -3 1889.39 158.022   4
  -8   2  -3 2400.75 197.503   1
  -8   2  -3 2095.01 143.064   6
   8   2  -3 2696.76 179.402   3
  -8  -2  -2 3230.35 202.999  10
   8   2  -2 3006.92 195.653   3
  -8  -2  -2 2830.86 197.381   5
  -8   2  -2 2943.38 219.154  10
  -8  -2  -2 2656.69 186.923   9
   8   2  -2 2677.03 180.322   9
  -8  -2  -2 3218.64 196.878   4
   8  -2  -2 3090.28 198.367   9
   8   2  -2 2833.30 193.965   4
   8   2  -2 3154.91 201.401   8
   8  -2  -2 2708.39 190.799   2
  -8   2  -2 2836.44 192.444   7
   8  -2  -2 3082.70 196.751   6
  -8   2  -2 2702.76 170.816   6
   8  -2  -1 2842.55 215.104  10
  -8  -2  -1 2507.04 174.534  10
   8   2  -1 2448.59 174.848   9
  -8  -2  -1 2511.34 173.605   4
   8  -2  -1 2550.48 175.073   9
   8   2  -1 2361.72 171.205   4
  -8  -2  -1 2466.60 163.815   8
   8   2  -1 2319.54 169.896   8
   8  -2  -1 2456.52 176.949   2
  -8   2  -1 2468.21 176.943   7
  -8  -2  -1 2541.16 108.073   2
   8   2  -1 2220.99 135.663   7
  -8   2  -1 2581.25 197.493  10
   8  -2  -1 2526.79 173.558   6
  -8   2  -1 2524.40 164.673   6
   8  -2  -1 2573.31 178.484   1
   8   2  -1 2692.07 196.470   5
  -8  -2  -1 2431.47 184.614   5
   8  -2   0 81.1647 44.8028   2
   8  -2   0 117.581 67.3407  10
  -8   2   0 169.504 64.2904  10
   8   2   0 232.914 68.4902   1
  -8  -2   0 177.570 59.0521   5
  -8  -2   0 96.0272 28.6255   2
   8   2   0 160.046 56.9682   9
  -8  -2   0 164.597 53.5000   8
   8   2   0 84.2339 43.5320   8
  -8  -2   0 131.697 48.0884   4
   8  -2   0 129.588 54.3893   1
  -8  -2   0 237.363 66.0385  10
   8   2   0 148.355 56.9987   4
   8   2   0 181.190 62.0749   5
   8  -2   0 135.535 43.3218   6
  -8   2   0 103.380 39.4562   6
   8  -2   1 2791.21 208.326  10
  -8  -2   1 2567.73 184.751  10
   8  -2   1 2682.84 185.297   2
   8   2   1 2493.46 177.714   9
   8  -2   1 2491.33 181.685   1
  -8   2   1 2414.13 194.218  10
  -8   2   1 2432.60 176.682   2
   8   2   1 2486.18 174.240   4
  -8  -2   1 2238.10 166.369   8
   8   2   1 2829.57 173.165   8
   8   2   1 2730.36 191.317   1
   8   2   1 2370.75 157.863   7
  -8  -2   1 2307.65 136.826   2
   8  -2   1 2404.63 162.728   6
  -8   2   1 2266.35 166.434   6
   8   2   1 2684.52 206.406   5
  -8  -2   1 2674.08 211.633   5
  -8  -2   2 2838.78 205.219  10
   8  -2   2 2906.55 102.959   5
   8  -2   2 3154.43 214.900   1
   8   2   2 3128.40 208.197   1
  -8   2   2 2948.97 197.621   2
   8  -2   2 3065.36 205.623   2
   8   2   2 3032.59 190.466   4
  -8  -2   2 2791.75 192.977   8
   8   2   2 3041.93 174.877   8
   8   2   2 2916.85 195.415   9
   8   2   2 3089.61 188.235   7
   8  -2   2 3093.64 227.997  10
   8  -2   2 2998.49 179.585   6
  -8   2   2 2828.51 191.038   6
  -8   2   2 3121.90 224.577  10
   8  -2   2 2803.23 101.373   5
  -8  -2   2 2560.43 209.329   5
   8   2   2 2942.56 218.735   5
  -8   2   2 2898.46 99.3536   5
  -8  -2   3 2370.77 189.997  10
  -8   2   3 2195.62 187.452  10
  -8   2   3 2440.53 113.080   5
   8  -2   3 2292.86 112.662   5
   8  -2   3 2512.69 205.432  10
   8  -2   3 2110.14 179.950   2
   8   2   3 2196.94 169.838   9
   8   2   3 2355.28 165.392   4
  -8  -2   3 2412.73 181.181   8
   8   2   3 2447.82 152.617   8
   8   2   3 2081.22 163.192   7
   8   2   3 2358.84 183.180  10
   8  -2   3 2241.74 150.051   6
  -8  -2   3 2415.85 162.260   2
  -8   2   3 2105.46 167.197   6
  -8   2   3 2375.92 101.341   3
  -8  -2   3 2199.00 191.010   5
   8  -2   3 2339.03 190.570   1
   8  -2   3 2068.53 116.084   3
   8   2   3 2708.66 201.318   5
   8   2   3 2313.42 184.804   1
  -8  -2   4 2794.18 219.977  10
  -8   2   4 2415.95 134.531   5
   8   2   4 2526.70 204.596  10
   8  -2   4 2515.83 139.198   5
   8   2   4 2469.67 185.022   9
  -8   2   4 2628.30 218.168  10
   8  -2   4 2365.97 194.522   2
   8   2   4 2667.99 177.203   4
  -8  -2   4 2260.71 183.384   8
   8   2   4 2369.73 145.998   8
   8  -2   4 2623.79 158.158   6
  -8  -2   4 2777.11 186.674   2
  -8   2   4 2334.16 179.954   6
  -8   2   4 2379.77 123.735   3
   8   2   4 3021.87 219.006   1
  -8  -2   4 2653.37 205.429   5
   8  -2   4 2546.20 144.163   3
  -8   2   5 1587.06 181.198  10
   8   2   5 1549.20 166.372  10
   8  -2   5 1599.05 120.473   5
   8   2   5 1515.72 147.699   9
   8  -2   5 1621.41 118.411   9
  -8  -2   5 1448.12 154.358   8
   8   2   5 1462.44 134.485   4
   8   2   5 1572.86 114.191   8
   8  -2   5 1610.33 109.694   4
  -8   2   5 1432.34 144.002   6
  -8   2   5 1603.48 112.617   3
  -8  -2   5 1536.70 162.246   5
   8  -2   5 1740.02 129.701   3
  -8  -2   6 463.720 101.487   5
  -8   2   6 455.890 65.3113   3
   8  -2   6 540.904 78.6734   3
  -8   2   6 436.382 70.3379   5
   8  -2   6 488.684 74.9749   5
   8   2   6 506.067 88.6877   9
   8  -2   6 484.669 65.8412   9
  -8  -2   6 535.255 97.5168   8
   8   2   6 463.051 57.8765   8
  -8   2   6 794.624 152.263  10
   8   2   6 590.998 93.1035   4
   8  -2   6 479.057 58.5983   4
  -8   2   6 530.860 90.6289   6
  -8  -2   7 542.798 107.978   5
   8  -2   7 665.815 100.683   3
   8  -2   7 649.511 69.6581   9
  -8   2   7 668.513 89.8222   3
   8  -2   7 511.187 38.1027   4
   8   2   7 514.096 100.081   9
   8   2   7 658.231 65.6394   8
  -8  -2   7 545.582 100.424   8
   8   2   7 649.014 97.6112   4
   8   2   7 528.130 102.815   3
  -8   2   7 587.973 104.075   6
   8   2   8 498.144 97.8693   3
   8  -2   8 633.642 102.737   3
  -8  -2   8 642.569 117.523   3
   8   2   8 715.504 120.545   9
  -8  -2   8 671.579 114.959   8
  -8   2   8 515.862 85.5274   3
  -8  -2   8 449.347 105.133   5
   8   2   8 576.289 88.3719   4
  -8   2   8 548.486 98.9622   6
   8   2   9 281.894 81.6273   3
  -8   2   9 605.386 100.896   3
   8  -2   9 627.291 110.312   3
  -8  -2   9 569.198 128.055   3
   8   2   9 515.222 103.724   9
  -8  -2   9 350.335 95.2418   8
  -8   2   9 270.913 73.0754   6
   8   2  10 100.612 72.4169   3
  -8   2  10 204.509 70.9488   3
   8  -2  10 150.982 74.5751   3
  -8  -2  10 113.733 66.2518   3
   8   2  10 252.131 92.2678   9
  -8  -2  10 93.8006 70.8936   8
  -8   2  10 172.388 67.1408   6
  -8   2  11 253.940 80.8960   3
  -8  -2  11 298.126 95.5519   8
   8  -3 -10 1554.51 200.315   2
  -8  -3 -10 1361.92 193.550   1
   8  -3  -9 911.110 150.918   2
  -8   3  -9 841.834 156.346   1
   8   3  -9 1037.29 136.947   4
  -8  -3  -9 661.498 137.307   1
  -8   3  -8 2878.26 271.126   1
   8   3  -8 3108.51 235.851   4
  -8  -3  -8 2615.74 238.030   1
   8  -3  -8 3117.12 263.584   2
   8  -3  -7 787.483 130.695   2
  -8  -3  -7 780.045 137.073   5
   8   3  -7 885.738 106.116   9
  -8  -3  -7 1009.42 138.558   1
   8   3  -7 1050.40 135.746   4
  -8   3  -7 1149.79 139.067   7
  -8   3  -7 899.042 90.0226   6
  -8   3  -7 1048.21 164.196   1
  -8  -3  -6 2795.55 244.056   5
   8   3  -6 2892.56 197.594   9
   8   3  -6 3220.19 231.119   4
  -8   3  -6 3389.06 267.596   1
  -8   3  -6 3009.04 221.410   7
  -8  -3  -6 2890.43 220.724   1
   8  -3  -6 3295.80 252.031   2
  -8   3  -6 3157.81 185.142   6
   8  -3  -5 1365.93 157.434   2
  -8  -3  -5 1241.62 154.906   5
  -8   3  -5 1217.12 154.228   1
  -8   3  -5 1504.19 152.514   7
   8   3  -5 1090.03 132.357   4
   8   3  -5 1410.56 135.182   9
  -8   3  -5 1563.49 129.820   6
  -8  -3  -5 1275.62 136.840   1
  -8   3  -5 1228.34 115.988   3
   8  -3  -5 1265.38 126.865   8
   8   3  -4 3078.82 205.912   9
  -8  -3  -4 3010.82 241.546   5
   8   3  -4 2961.88 217.096   4
   8  -3  -4 2913.78 227.754   2
  -8   3  -4 3280.78 223.798   7
  -8   3  -4 3455.98 245.513   1
  -8   3  -4 3074.94 194.697   6
  -8   3  -3 540.655 61.1511   3
   8  -3  -3 1011.16 136.326   2
  -8  -3  -3 547.661 101.729   5
   8   3  -3 605.967 96.6700   9
  -8  -3  -3 561.858 83.7892   8
   8   3  -3 453.541 89.9991   4
  -8   3  -3 723.924 106.348   7
  -8   3  -3 741.384 97.6116   6
  -8   3  -2 3473.72 234.019  10
   8   3  -2 2866.27 203.043   9
  -8  -3  -2 2762.07 112.144   2
   8   3  -2 3095.08 218.047   4
  -8  -3  -2 2750.89 184.198   8
   8  -3  -2 2946.58 224.508   2
  -8   3  -2 2944.20 212.060   7
   8   3  -2 3185.36 158.569   7
  -8  -3  -2 2982.83 106.323   2
  -8  -3  -2 2142.23 202.988   5
  -8   3  -2 3050.11 201.123   6
  -8   3  -2 3198.35 140.534   3
  -8   3  -1 2989.12 219.942  10
  -8  -3  -1 3612.96 194.509  10
   8   3  -1 3128.08 215.428   9
   8   3  -1 3205.67 224.350   4
  -8  -3  -1 3295.58 208.807   8
   8  -3  -1 3065.23 225.619   2
   8  -3  -1 3222.04 200.875   1
  -8  -3  -1 3179.32 141.126   2
  -8   3  -1 3353.78 218.200   6
  -8   3  -1 3371.88 130.741   3
  -8  -3  -1 2756.70 227.629   5
   8  -3   0 11961.3 476.842  10
  -8   3   0 11406.5 464.875  10
   8   3   0 11032.1 458.246   9
  -8  -3   0 11361.3 407.178  10
   8  -3   0 11784.1 439.024   1
   8   3   0 10982.3 460.372   4
  -8  -3   0 10965.2 443.408   8
   8  -3   0 11364.3 485.219   2
   8   3   0 11319.1 431.146   1
   8   3   0 11439.6 406.225   7
  -8   3   0 10670.0 445.309   6
  -8  -3   0 10783.9 362.173   2
  -8   3   0 10941.5 299.764   3
  -8  -3   0 11785.9 511.821   5
   8   3   1 3131.26 180.333  10
   8  -3   1 3674.86 243.770  10
  -8  -3   1 3120.18 190.857  10
  -8   3   1 3120.89 219.756  10
   8  -3   1 3483.68 218.002   1
   8   3   1 3075.72 219.577   9
   8  -3   1 3171.06 239.396   2
   8   3   1 3378.14 206.670   1
  -8  -3   1 3564.24 230.100   8
   8   3   1 3346.88 209.404   8
   8   3   1 3383.82 204.168   7
   8   3   1 3144.07 218.617   4
  -8   3   1 3255.90 222.731   6
  -8   3   1 3229.33 116.371   3
  -8  -3   1 3469.12 262.581   5
   8  -3   2 3064.60 227.130  10
  -8  -3   2 3125.91 200.123  10
  -8   3   2 2554.85 204.810  10
   8   3   2 2947.34 198.562   1
   8   3   2 2986.25 219.666   9
   8  -3   2 3257.94 206.139   9
   8  -3   2 2520.66 217.091   2
   8   3   2 2814.59 208.573   4
  -8  -3   2 2667.23 205.865   8
   8   3   2 3120.22 194.053   8
   8  -3   2 3377.86 209.723   4
  -8   3   2 3042.99 216.443   6
  -8   3   2 2930.31 118.802   3
  -8  -3   2 2964.56 183.924   2
  -8   3   2 3423.88 129.733   5
  -8  -3   2 2944.91 247.323   5
   8  -3   2 3231.23 130.946   5
   8  -3   2 2885.91 204.852   1
  -8  -3   3 620.083 93.4482  10
   8  -3   3 567.162 59.8639   5
  -8  -3   3 542.978 112.804   5
  -8   3   3 658.661 113.824  10
   8   3   3 536.176 96.0873   9
   8  -3   3 578.687 86.1078   9
  -8  -3   3 534.138 82.4422   2
   8  -3   3 647.641 102.185   1
  -8  -3   3 489.089 97.6622   8
   8   3   3 701.845 90.0997   8
   8   3   3 564.062 95.0056   4
   8   3   3 554.972 87.5281   1
   8  -3   3 558.542 84.3440   4
  -8   3   3 529.702 52.6399   3
  -8   3   3 541.404 96.5562   6
   8  -3   3 668.416 119.238   2
  -8   3   3 708.471 63.1440   5
   8   3   4 2924.39 204.705  10
   8  -3   4 3045.45 190.142   9
  -8   3   4 2544.35 211.087  10
   8  -3   4 3156.04 252.391   2
   8   3   4 3072.68 230.102   9
  -8  -3   4 2847.91 226.165   8
   8   3   4 2920.55 215.113   4
   8   3   4 3003.53 178.575   8
  -8  -3   4 3297.52 232.839  10
   8  -3   4 2852.58 186.490   4
  -8   3   4 2824.31 218.078   6
   8   3   4 3259.51 218.039   1
  -8   3   4 2788.33 146.650   3
   8  -3   4 3314.62 165.784   5
  -8  -3   4 3105.74 258.197   5
  -8   3   4 3100.44 160.250   5
   8  -3   5 1474.39 127.532   3
  -8   3   5 1131.17 154.187  10
   8   3   5 1184.12 140.624   1
  -8  -3   5 1054.56 156.598   5
   8   3   5 1379.53 159.384   9
   8   3   5 1172.85 137.636  10
   8  -3   5 1511.07 126.972   9
   8   3   5 1468.33 113.613   8
   8  -3   5 1359.29 124.934   4
  -8  -3   5 1368.18 156.858   8
  -8  -3   5 1489.99 169.506  10
   8   3   5 1236.13 144.378   4
  -8   3   5 1391.97 155.388   6
  -8   3   5 1451.31 112.718   3
  -8   3   6 3471.32 272.574  10
   8   3   6 3440.18 261.931   9
  -8  -3   6 3807.37 277.315   8
   8   3   6 3383.94 247.532   4
  -8   3   6 3498.95 251.952   6
  -8   3   6 3684.51 203.040   3
  -8  -3   6 3476.34 281.265   5
   8  -3   6 3284.69 209.711   3
  -8   3   7 903.596 153.529  10
  -8  -3   7 1257.09 174.971   5
   8  -3   7 893.208 118.816   3
   8   3   7 897.795 145.331   9
  -8  -3   7 840.870 139.704   8
   8   3   7 1115.44 141.969   4
  -8   3   7 1016.49 113.103   3
  -8   3   7 777.246 124.018   6
  -8   3   8 2966.46 273.637  10
   8   3   8 2945.48 258.909   9
  -8  -3   8 3120.21 267.120   8
   8   3   8 3514.61 256.019   4
   8   3   8 2931.74 256.903   3
  -8   3   8 2895.96 235.919   6
  -8   3   8 3242.44 218.500   3
  -8  -3   8 2809.06 264.295   5
   8  -3   8 2988.14 222.843   3
   8   3   9 689.552 128.105   3
  -8   3   9 727.206 109.532   3
  -8   3   9 1365.02 205.483  10
   8  -3   9 660.198 116.759   3
   8   3   9 995.843 161.474   9
  -8  -3   9 1014.35 157.570   8
  -8   3   9 978.858 140.350   6
  -8  -3   9 1006.21 168.911   5
  -8   3  10 1294.23 154.771   3
   8  -3  10 1572.99 183.650   3
   8   3  10 1109.42 172.757   9
  -8  -3  10 1374.60 187.119   8
  -8   3  10 1519.93 174.687   6
  -8   4  -9-41.4579 66.4806   1
  -8  -4  -8 4023.51 345.015   5
  -8   4  -8 3835.11 321.408   1
   8   4  -8 4345.01 305.701   4
   8  -4  -8 4520.95 343.198   2
   8  -4  -7 10.9388 59.0661   2
  -8  -4  -7 226.982 105.096   5
  -8   4  -7 1.11503 62.1278   1
   8   4  -7 23.7930 37.8400   9
  -8  -4  -7-1.83950 40.6909   1
   8   4  -7 67.7427 60.3893   4
  -8   4  -7 51.2162 46.3762   7
  -8  -4  -6 6085.61 404.562   5
   8   4  -6 6089.38 326.929   9
   8   4  -6 5723.65 352.484   4
  -8   4  -6 6111.68 367.894   1
  -8   4  -6 5798.09 336.340   7
   8  -4  -6 5779.79 379.690   2
  -8   4  -6 5985.21 312.733   6
   8  -4  -5 381.375 102.068   2
  -8  -4  -5 499.508 127.338   5
  -8   4  -5 465.064 105.662   1
   8   4  -5 408.170 101.456   4
  -8   4  -5 336.522 77.5986   7
   8   4  -5 541.440 97.4704   9
  -8   4  -5 393.368 82.0477   6
   8   4  -4 13934.6 584.290   4
  -8  -4  -4 13606.5 627.277   5
   8   4  -4 13691.8 548.391   9
  -8  -4  -4 13836.6 500.532   8
   8  -4  -4 13743.8 610.403   2
  -8   4  -4 13183.2 553.949   7
  -8   4  -4 13820.2 545.733   6
  -8  -4  -3 358.095 98.1438   5
   8   4  -3 349.134 87.4311   9
  -8  -4  -3 244.739 64.3704   8
   8   4  -3 464.515 99.0832   4
  -8   4  -3 467.988 94.7871   7
   8  -4  -3 365.199 95.9086   2
  -8   4  -3 443.089 95.2282   6
   8  -4  -3 507.519 80.3771   1
  -8  -4  -2 10184.3 494.636   5
   8   4  -2 10607.8 447.973   9
  -8  -4  -2 9709.99 298.721   2
  -8  -4  -2 10104.4 409.413   8
   8   4  -2 10733.5 467.849   4
   8  -4  -2 10087.5 477.508   2
   8  -4  -2 9963.68 371.956   1
  -8   4  -2 9736.64 432.100   6
   8  -4  -1 806.055 124.110   2
  -8   4  -1 802.030 111.906  10
  -8  -4  -1 1003.34 153.244   5
  -8  -4  -1 1008.70 129.936   8
   8  -4  -1 893.159 100.678   1
   8   4  -1 788.815 95.0091   1
   8   4  -1 993.061 100.440   7
   8   4  -1 963.210 137.912   4
   8   4  -1 1141.84 145.597   9
  -8  -4  -1 900.973 84.2230   2
  -8   4  -1 950.743 135.999   6
  -8   4  -1 1014.66 83.7622   3
   8  -4   0 14604.3 546.659  10
   8  -4   0 14173.4 510.145   1
  -8   4   0 13897.1 536.846  10
   8   4   0 13935.1 582.721   9
   8   4   0 15259.5 501.143   1
   8  -4   0 12169.0 582.436   2
  -8  -4   0 13630.2 560.995   8
   8   4   0 14004.1 592.281   4
   8  -4   0 14794.4 402.035   5
   8   4   0 14725.4 514.929   7
  -8   4   0 14039.4 583.713   6
  -8   4   0 14227.5 433.326   3
  -8  -4   0 15027.6 642.561   5
  -8  -4   1 817.952 82.3648  10
   8  -4   1 888.760 67.8238   5
  -8   4   1 888.470 114.454  10
   8   4   1 922.259 97.6017   1
  -8  -4   1 868.694 142.730   5
   8   4   1 675.263 112.090   9
   8  -4   1 666.031 102.246  10
  -8  -4   1 739.366 94.6057   2
  -8  -4   1 748.448 121.948   8
   8   4   1 999.234 141.367   4
   8  -4   1 807.044 103.707   1
  -8   4   1 710.099 122.967   6
   8  -4   1 603.307 120.460   2
  -8   4   1 788.952 72.5344   3
   8   4   2 11233.7 371.219  10
  -8  -4   2 10648.3 387.670  10
  -8   4   2 10455.9 456.709  10
   8   4   2 10800.7 507.015   9
   8  -4   2 10382.8 517.494   2
  -8  -4   2 10640.6 496.813   8
   8   4   2 9973.56 486.071   4
  -8   4   2 10863.5 505.435   6
   8  -4   2 10322.4 435.340   1
   8   4   2 10958.0 407.224   1
  -8  -4   2 10606.9 540.522   5
   8  -4   2 11387.2 354.085   5
  -8  -4   3 470.295 110.440   5
   8   4   3 363.389 67.5529   1
  -8   4   3 489.128 104.165  10
   8   4   3 475.444 105.506   9
   8  -4   3 452.396 66.2754   5
  -8  -4   3 429.130 103.321   8
  -8  -4   3 468.600 77.6107  10
  -8   4   3 434.634 59.0270   3
   8   4   3 577.936 112.836   4
  -8   4   3 488.923 102.961   6
   8  -4   3 375.663 99.7277   2
  -8  -4   4 14723.3 526.953  10
  -8   4   4 13346.2 561.688  10
   8   4   4 13266.3 598.885   9
   8  -4   4 14804.7 648.427   2
  -8  -4   4 14067.8 617.606   8
   8   4   4 13154.7 590.993   4
  -8   4   4 14020.3 607.447   6
  -8   4   4 14889.0 469.226   3
   8  -4   4 13897.9 484.470   5
  -8  -4   4 13088.1 643.088   5
  -8   4   5 225.144 56.9529   3
  -8  -4   5 439.469 92.9611  10
  -8   4   5 440.757 102.531  10
   8  -4   5 384.574 73.8973   5
  -8  -4   5 256.251 106.311   5
   8  -4   5 266.576 87.3644   2
   8   4   5 382.777 101.801   9
  -8  -4   5 156.280 65.9585   8
   8   4   5 353.540 88.9115   4
  -8   4   5 494.085 111.446   6
  -8  -4   6 6121.30 351.047  10
  -8   4   6 5533.99 353.156  10
   8   4   6 5587.86 381.013   9
  -8  -4   6 5849.45 387.750   8
   8   4   6 5895.84 371.281   4
  -8   4   6 6126.17 378.556   6
  -8   4   6 6454.33 301.378   3
   8  -4   6 6167.45 310.433   5
  -8  -4   6 5910.47 417.007   5
  -8   4   7 7.94613 69.8204  10
   8  -4   7 32.8165 44.6441   5
   8   4   7 76.9793 75.5926   9
  -8  -4   7 162.954 86.2525   8
  -8  -4   7-27.9181 69.1634   5
   8   4   7-87.1474 62.7011   4
  -8   4   7 78.6845 66.1371   6
  -8   4   8 3985.89 320.686  10
   8  -4   8 4014.59 282.351   3
   8   4   8 3891.95 326.179   9
  -8  -4   8 3630.80 321.403   8
   8   4   8 4686.20 323.268   4
  -8   4   8 4365.90 321.989   6
   8  -4   8 4099.98 275.185   5
  -8  -4   8 4010.45 353.728   5
   8  -4   9 92.6545 75.7123   3
   8   4   9 97.4810 67.0699   9
  -8   4   9 63.3774 73.9156   6
  -8   5  -7 71.3130 75.6668   1
   8   5  -7 81.5846 79.4091   4
   8   5  -6 3586.47 303.421   4
   8  -5  -6 3633.26 321.401   2
  -8   5  -6 3184.42 256.414   7
  -8   5  -6 3589.26 270.847   1
   8  -5  -5 577.326 136.295   2
  -8  -5  -5 649.644 135.942   5
   8   5  -5 792.935 123.880   9
  -8   5  -5 692.187 117.328   7
   8   5  -5 603.927 135.187   4
  -8   5  -5 713.359 118.165   6
  -8  -5  -4 4395.77 357.311   5
   8   5  -4 4758.72 319.470   9
   8   5  -4 4058.76 317.414   4
   8  -5  -4 3829.32 325.498   2
  -8   5  -4 3630.18 277.771   7
  -8   5  -4 3745.65 287.608   6
   8  -5  -3 555.510 131.105   2
  -8  -5  -3 620.468 140.805   5
   8   5  -3 377.799 103.021   9
  -8  -5  -3 504.688 99.9658   8
  -8   5  -3 319.890 85.1774   7
   8   5  -3 308.742 95.0973   4
  -8   5  -3 492.754 111.516   6
  -8  -5  -2 4947.62 365.180   5
   8   5  -2 4693.97 328.553   9
  -8  -5  -2 5124.36 314.282   8
   8   5  -2 5094.84 358.743   4
   8  -5  -2 4452.31 343.604   2
  -8   5  -2 4247.62 320.049   6
   8  -5  -1 159.227 85.2326   2
  -8  -5  -1 184.986 96.4358   5
   8   5  -1 167.048 77.6054   9
  -8  -5  -1 206.773 68.1604   8
   8   5  -1 126.463 80.8054   4
  -8   5  -1 199.495 76.0535   6
   8   5   0 7983.78 451.526   9
   8  -5   0 7871.47 465.417   2
  -8  -5   0 7122.60 410.795   8
   8   5   0 8451.66 473.138   4
  -8   5   0 7300.99 436.106   6
  -8  -5   0 8555.46 486.453   5
  -8   5   1 178.321 58.7045  10
  -8  -5   1 169.892 95.5438   5
   8   5   1 203.764 77.5067   9
  -8  -5   1 222.999 101.329   8
   8   5   1 173.908 81.6727   4
  -8   5   1 248.983 90.9095   6
   8  -5   1 159.916 86.6732   2
  -8   5   2 4979.26 288.665  10
   8   5   2 5534.67 380.872   9
   8  -5   2 5327.72 379.522   2
  -8  -5   2 4895.94 349.411   8
   8   5   2 4833.07 357.715   4
  -8   5   2 4827.97 352.858   6
  -8  -5   2 5671.29 392.774   5
  -8   5   3 552.935 98.9621  10
  -8  -5   3 435.334 121.533   5
   8   5   3 536.549 122.822   9
  -8  -5   3 579.229 131.548   8
   8   5   3 449.200 115.187   4
  -8   5   3 421.650 115.530   6
   8  -5   3 421.947 122.936   2
   8   5   4 4484.67 352.067   9
   8  -5   4 4394.78 348.433   2
  -8  -5   4 4190.78 334.504   8
   8   5   4 4117.67 330.342   4
  -8   5   4 4063.40 332.041   6
  -8   5   4 3850.29 269.638  10
  -8  -5   4 4817.94 383.047   5
  -8  -5   5 691.833 155.053   5
   8   5   5 930.613 166.639   9
  -8  -5   5 958.608 177.429   8
   8   5   5 896.766 156.962   4
  -8   5   5 792.673 148.110   6
   8  -5   5 1026.95 171.419   2
   8   5   6 3638.73 331.026   9
   8   5   6 4008.10 325.606   4
  -8   5   6 3864.10 326.563   6
   8   5   7 112.960 82.9340   4
   8   5   8 1199.19 181.435   4
   8   6  -4 6.50366 66.3088   9
  -8   6  -4-56.7492 56.9875   6
   8   6  -3 499.688 127.816   9
  -8   6  -3 642.365 137.471   7
  -8   6  -3 460.384 133.773   6
   8   6  -2-27.9401 69.4979   9
  -8  -6  -2 24.6167 72.4413   8
  -8   6  -2 108.353 71.5925   6
   8   6  -1 819.533 163.805   9
  -8  -6  -1 625.259 127.123   8
  -8   6  -1 677.999 144.079   6
   8   6   0 1359.27 199.812   9
  -8  -6   0 1187.96 183.854   8
  -8   6   0 1363.87 201.531   6
  -8  -6   1 404.712 118.583   8
  -8  -6   2 43.3911 70.1593   8
  -9   0 -10 42.4111 95.2065   1
   9   0 -10 22.7318 47.4881   4
  -9   0  -9 152.812 85.8505   1
   9   0  -9 20.7475 50.4682   4
   9   0  -8 34.7049 50.2758   2
  -9   0  -8-66.7716 72.7586   1
   9   0  -7-7.44687 47.8861   2
  -9   0  -7 21.4487 46.6449   1
  -9   0  -6 48.7958 47.7129   1
   9   0  -6 15.8682 43.1721   2
   9   0  -6-2.06126 31.0097   3
   9   0  -5 23.6096 27.1451   3
   9   0  -5 20.2049 42.7719   2
  -9   0  -5 84.5894 68.4393   1
   9   0  -4 40.5448 26.1575   3
   9   0  -4 21.9305 43.0070   2
   9   0  -4-44.3547 35.7413   8
  -9   0  -4 47.9437 41.2696   7
  -9   0  -4 27.9725 59.1782   1
  -9   0  -3 95.2998 59.4172  10
   9   0  -3 33.3988 27.3768   3
  -9   0  -3 1.68283 20.4814   5
   9   0  -3 51.2969 51.0591   2
   9   0  -3-29.5778 25.9972   8
  -9   0  -3-6.53242 33.8903   7
   9   0  -3 22.1927 27.2347   6
  -9   0  -3 25.1096 46.7472   1
   9   0  -2-16.1048 17.8970   3
  -9   0  -2 7.64684 20.5305   5
   9   0  -2 34.2358 40.0328   2
   9   0  -2-7.90164 36.4949   8
  -9   0  -2 42.9736 44.5730   7
  -9   0  -2 16.4839 41.2222  10
  -9   0  -1 23.2055 48.9106  10
  -9   0  -1-2.39081 17.2616   5
   9   0  -1 11.9401 18.5410   3
   9   0  -1 42.3961 38.3739   2
   9   0  -1 23.3927 34.1528   8
  -9   0  -1-23.9576 33.0265   7
  -9   0  -1 22.0988 26.8968   2
   9   0   0 18.1736 25.5572   5
  -9   0   0 10.4540 16.8487   5
   9   0   0 26.4772 32.3035   2
   9   0   0 42.8829 34.2429   8
  -9   0   0 17.5960 34.6512   7
   9   0   0-3.50691 35.6434   6
  -9   0   0 7.23236 53.6346  10
  -9   0   0 29.0007 33.3565   2
  -9   0   1 5.48617 47.4909  10
   9   0   1-20.5934 25.7967   5
   9   0   1 57.0387 31.0241   2
  -9   0   1 8.70133 22.0024   5
   9   0   1 24.5017 39.7853   8
   9   0   1-9.67675 34.3925   4
  -9   0   1-18.8449 35.4377   7
   9   0   1-36.1262 30.9536   6
  -9   0   2 30.7071 28.4086   2
   9   0   2 12.8894 22.5146   2
  -9   0   2-22.4732 36.0032   5
   9   0   2 0.99886 28.2236   5
   9   0   2 78.2785 46.2753   9
   9   0   2 54.0650 34.1510   8
   9   0   2-4.13682 34.7117   4
  -9   0   2 8.05070 38.6421   7
   9   0   2 3.27475 29.9924   6
  -9   0   2-43.2253 58.9944  10
   9   0   3-30.8280 21.6710   2
   9   0   3 14.3520 47.4454   1
  -9   0   3-0.90267 32.0991   2
  -9   0   3 116.237 63.8180  10
  -9   0   3 35.6569 37.1559   5
   9   0   3 124.242 42.2078   5
   9   0   3 45.3303 38.8120   9
   9   0   3-3.54662 41.1683  10
   9   0   3 28.9970 32.5390   3
   9   0   3-20.1427 28.4961   4
  -9   0   3 47.9421 43.7577   7
   9   0   3 11.2827 38.9029   7
   9   0   3 66.1904 32.5917   6
   9   0   4-4.43813 29.1406   3
   9   0   4 36.6948 31.8972   5
  -9   0   4 33.8259 75.8720  10
   9   0   4-7.01541 31.1457   9
  -9   0   4 17.2545 35.1892   5
   9   0   4-15.1003 23.1443   4
   9   0   4 24.5729 27.4350   6
   9   0   4 6.59284 21.3125   2
   9   0   5 21.4862 36.7768   3
  -9   0   5 171.327 102.211  10
  -9   0   5 87.0044 46.4618   3
   9   0   5-0.16620 28.7352   9
   9   0   5 21.5414 30.8209   5
   9   0   5 26.6107 26.4958   4
   9   0   5 14.0978 25.2767   6
   9   0   5 19.1768 25.6974   2
   9   0   6 70.0723 43.4480   3
   9   0   6-16.4055 35.8616   5
  -9   0   6 12.0001 40.1734   3
   9   0   6 33.7645 34.4170   9
   9   0   6 20.9004 26.1584   4
   9   0   6 32.1593 26.3253   6
   9   0   6 41.7238 35.6045   2
  -9   0   7-13.3991 39.5122   3
   9   0   7-3.20089 36.4101   9
   9   0   7-4.51004 36.7684   3
   9   0   7-2.40981 20.6059   4
   9   0   7 3.06358 12.7735   6
   9   0   8 44.6936 53.6627   3
  -9   0   8 62.0835 51.4316   3
   9   0   8 50.5143 40.3352   9
   9   0   9-56.6245 47.3595   3
  -9   0   9-15.1849 48.8567   3
   9   0   9 69.5156 43.4333   9
   9   0  10 1.69105 53.4366   3
  -9   0  10-9.56389 56.8641   3
   9   0  11-84.2984 54.6213   3
  -9   0  11-100.188 77.7470   3
   9  -1 -10 796.284 138.300   2
  -9   1 -10 780.005 167.592   1
   9   1 -10 726.135 114.047   4
  -9  -1 -10 466.607 134.768   1
   9   1  -9 5084.15 275.767   9
  -9   1  -9 6337.48 447.105   1
  -9  -1  -9 5434.84 407.626   1
   9   1  -9 5673.61 324.802   4
   9  -1  -9 5469.71 358.733   2
   9   1  -8 269.232 61.9020   9
   9  -1  -8 393.652 95.5361   2
   9   1  -8 319.586 80.7543   4
  -9   1  -8 280.355 109.555   1
  -9  -1  -8 324.621 109.040   1
   9   1  -7 7935.04 353.050   9
   9   1  -7 8409.08 390.212   4
  -9   1  -7 8940.46 501.377   1
  -9  -1  -7 7976.19 459.403   1
   9  -1  -7 7770.82 407.915   2
   9   1  -6 3043.39 200.255   9
   9   1  -6 3262.50 222.782   4
  -9  -1  -6 3044.00 259.092   1
  -9   1  -6 3291.13 281.569   1
   9  -1  -6 3281.87 239.478   2
  -9  -1  -5 3009.78 206.922   5
   9   1  -5 3395.05 208.237   9
   9   1  -5 3481.78 226.635   4
   9  -1  -5 3839.65 224.339   8
  -9   1  -5 3378.12 269.273   1
  -9  -1  -5 3778.06 273.357   1
  -9   1  -5 3050.48 213.129   7
   9  -1  -5 3468.17 231.282   2
   9  -1  -5 3133.25 166.172   3
   9   1  -5 3734.81 207.351   3
   9   1  -5 3651.62 235.644   2
  -9  -1  -4 897.712 103.718   5
   9   1  -4 1097.25 115.085   9
   9  -1  -4 1090.37 124.153   2
   9   1  -4 989.265 114.509   4
  -9   1  -4 1150.86 150.733   1
   9  -1  -4 1035.51 112.769   8
  -9   1  -4 920.397 109.339   7
   9  -1  -4 884.992 74.2052   3
  -9  -1  -4 1047.99 138.530   1
   9   1  -4 1029.20 115.939   2
   9   1  -4 1159.07 105.509   3
  -9  -1  -3 11438.2 431.926   5
  -9   1  -3 12519.7 539.886  10
   9   1  -3 12526.4 468.662   4
   9  -1  -3 13742.7 472.073   8
   9   1  -3 12669.5 458.989   9
  -9   1  -3 11926.5 461.229   7
   9  -1  -3 12059.6 462.042   2
  -9   1  -3 12671.5 529.053   1
  -9   1  -3 12170.5 414.844   6
   9   1  -3 12100.6 441.567   2
   9   1  -3 12842.2 422.552   3
  -9  -1  -2 5110.26 242.649   5
  -9   1  -2 5217.10 316.611  10
   9   1  -2 5019.35 258.437   9
   9   1  -2 4881.73 261.837   4
   9  -1  -2 5490.83 268.669   8
   9   1  -2 5363.19 271.171   8
   9  -1  -2 5189.69 258.978   2
  -9   1  -2 5227.15 264.545   7
  -9   1  -2 5105.17 237.016   6
   9   1  -2 5150.48 238.297   2
   9   1  -2 5265.01 229.311   3
  -9  -1  -2 5701.24 308.882  10
  -9  -1  -1 9728.13 361.117   5
   9   1  -1 9920.77 417.170  10
   9   1  -1 9698.18 348.850   3
  -9   1  -1 9695.53 442.478  10
  -9  -1  -1 9441.61 422.898  10
   9   1  -1 9370.75 378.836   9
   9   1  -1 9273.02 379.440   4
  -9  -1  -1 9220.18 293.245   2
   9   1  -1 9659.00 383.034   8
   9  -1  -1 9030.71 359.640   2
  -9   1  -1 9159.34 373.427   7
  -9  -1  -1 9117.25 362.865   7
   9  -1  -1 9596.82 367.644   6
  -9   1  -1 9020.83 352.220   6
   9   1  -1 8947.25 324.954   2
   9   1  -1 9049.88 352.800   5
   9   1   0 8483.15 379.286  10
  -9   1   0 8256.98 332.342   2
  -9  -1   0 8343.28 392.488  10
  -9   1   0 7758.16 393.018  10
   9   1   0 8470.02 352.469   9
   9   1   0 8323.74 345.939   4
   9   1   0 8882.24 349.678   8
  -9  -1   0 8233.96 282.885   2
   9  -1   0 7897.97 321.594   2
   9   1   0 7822.83 314.058   7
  -9   1   0 7652.80 332.670   7
  -9  -1   0 8024.76 320.127   7
   9  -1   0 9112.92 390.907   1
   9  -1   0 7928.06 324.532   6
   9   1   0 7231.61 363.675   1
   9   1   0 7582.10 274.169   2
  -9   1   0 7422.66 320.178   6
   9   1   0 8231.18 333.557   6
   9   1   0 8296.08 340.766   5
  -9  -1   0 8029.28 334.605   5
   9   1   1 8425.23 380.729  10
  -9  -1   1 7144.63 367.308  10
  -9   1   1 7780.82 386.907  10
   9   1   1 7528.33 335.805   9
   9   1   1 7308.69 320.525   4
  -9   1   1 7621.10 318.354   2
   9   1   1 8158.94 330.336   8
   9  -1   1 8344.65 379.249   1
   9  -1   1 7561.88 304.343   2
   9   1   1 7308.06 365.459   1
  -9  -1   1 7477.36 287.370   2
  -9   1   1 7326.70 323.507   7
   9   1   1 8432.22 325.587   7
  -9  -1   1 7534.64 299.976   7
   9  -1   1 7861.22 311.293   6
   9   1   1 7540.04 247.328   2
  -9   1   1 7457.80 323.084   6
   9   1   1 8213.97 320.986   6
   9  -1   1 7574.69 201.791   3
   9  -1   1 7430.04 211.816   5
   9   1   1 7517.00 343.860   5
  -9  -1   1 7001.00 333.917   5
  -9   1   1 7785.23 208.996   5
  -9  -1   2 4295.09 284.751  10
  -9   1   2 4908.43 303.677  10
   9   1   2 5007.44 295.024  10
   9   1   2 5085.36 249.150   4
   9   1   2 4997.32 259.762   9
   9  -1   2 5100.54 296.499   1
   9   1   2 4719.56 290.012   1
   9   1   2 4861.69 241.133   8
  -9   1   2 4874.44 251.693   2
   9  -1   2 4965.57 232.936   2
   9   1   2 5352.46 257.241   7
  -9  -1   2 5094.91 225.707   7
   9  -1   2 4985.03 310.105  10
   9  -1   2 5107.54 233.324   6
   9   1   2 4917.99 163.435   2
  -9   1   2 4866.08 255.280   6
   9   1   2 5117.79 239.564   6
   9  -1   2 5063.31 170.554   3
  -9   1   2 4835.75 187.042   5
  -9  -1   2 4934.07 271.298   5
   9   1   2 5161.07 273.047   5
   9  -1   2 4963.40 188.103   5
   9  -1   3 12174.1 375.371   5
  -9  -1   3 10966.9 498.024  10
  -9   1   3 11521.6 507.560  10
   9   1   3 12013.4 511.577  10
   9   1   3 11409.8 507.412   1
   9   1   3 12208.5 455.081   9
   9   1   3 11938.9 424.294   4
   9  -1   3 11960.4 424.127   2
  -9  -1   3 11943.4 462.699   8
   9   1   3 12094.7 426.105   8
  -9   1   3 12270.5 460.197   2
  -9  -1   3 12422.1 401.002   7
  -9  -1   3 12666.2 442.834   2
   9  -1   3 11915.2 407.887   6
   9   1   3 11647.5 299.318   2
  -9   1   3 11567.9 448.338   6
   9   1   3 11778.4 411.649   6
   9  -1   3 11490.9 358.807   3
  -9   1   3 12864.9 379.441   5
  -9  -1   3 12172.6 468.686   5
   9   1   3 12724.3 464.884   5
   9  -1   4 917.636 86.5896   5
  -9  -1   4 824.046 135.978  10
  -9   1   4 827.846 137.160  10
  -9  -1   4 828.833 110.923   5
  -9  -1   4 799.755 100.275   2
   9   1   4 717.725 98.8236   9
   9   1   4 782.136 88.9654   4
   9   1   4 938.019 95.3669   8
  -9  -1   4 723.622 101.262   8
  -9  -1   4 856.714 81.4793   7
   9  -1   4 984.081 88.9055   6
   9   1   4 737.192 79.1492   6
   9  -1   4 714.250 73.8557   3
  -9   1   4 667.625 95.1519   6
   9  -1   4 809.709 97.0134   2
  -9   1   4 897.372 77.6725   3
   9   1   4 1000.30 113.895   5
  -9   1   5 3573.18 275.708  10
   9  -1   5 3303.79 187.899   5
   9  -1   5 3527.17 194.819   9
   9   1   5 3313.05 209.077   9
   9  -1   5 3364.59 167.481   4
   9  -1   5 3643.04 217.977   2
  -9  -1   5 3237.03 268.099  10
   9   1   5 3286.66 183.869   4
  -9  -1   5 3027.53 216.089   8
   9   1   5 3639.16 194.134   8
  -9  -1   5 3701.42 176.660   7
   9  -1   5 3286.22 164.935   6
   9   1   5 3111.59 171.751   6
  -9   1   5 3803.79 230.151   6
   9  -1   5 3207.66 180.443   3
  -9  -1   5 2993.06 214.581   5
  -9   1   5 3349.44 173.469   3
  -9   1   6 3278.55 276.858  10
  -9  -1   6 3677.28 231.625   3
   9  -1   6 3249.42 203.698   5
   9  -1   6 3148.34 182.607   9
   9   1   6 3211.18 207.057   9
   9  -1   6 3376.96 151.535   4
  -9  -1   6 3437.22 233.302   8
   9   1   6 3416.06 186.102   8
   9   1   6 3631.63 192.955   4
  -9  -1   6 3415.59 170.900   7
   9  -1   6 3352.23 155.254   6
   9   1   6 3307.86 218.570   3
   9   1   6 3406.94 169.182   6
  -9   1   6 3488.07 228.324   6
   9  -1   6 3079.48 192.449   3
  -9  -1   6 3109.96 226.037   5
  -9   1   6 3224.04 186.107   3
   9  -1   7 8060.12 309.330   9
  -9  -1   7 7898.52 376.009   3
   9   1   7 7604.80 349.293   9
   9   1   7 7311.10 216.106   2
   9  -1   7 8165.52 232.580   4
  -9  -1   7 7510.22 376.015   8
   9   1   7 8070.22 310.189   8
   9   1   7 8552.16 330.101   4
   9  -1   7 7567.57 227.428   4
  -9  -1   7 8187.99 293.145   7
   9   1   7 6893.37 212.058   2
   9   1   7 7725.69 375.536   3
   9   1   7 7983.65 276.241   6
  -9   1   7 7598.25 368.046   6
   9  -1   7 8266.87 359.027   3
  -9   1   7 7754.44 335.077   3
   9   1   8 396.446 87.4146   3
   9  -1   8 361.172 80.6645   3
  -9   1   8 622.921 98.5796   3
  -9  -1   8 424.740 97.2801   3
   9  -1   8 415.640 63.7607   9
   9   1   8 472.802 85.6350   9
  -9  -1   8 247.698 76.8415   8
   9   1   8 449.596 66.2919   4
  -9  -1   9 5374.79 332.287   3
   9   1   9 5869.09 315.995   9
  -9  -1   9 5026.43 313.450   8
   9   1   9 5246.87 332.187   3
   9  -1   9 5411.71 319.596   3
  -9   1   9 5186.96 301.018   3
   9  -1  10 496.212 108.006   3
  -9   1  10 767.712 117.166   3
  -9  -1  10 551.100 114.061   3
  -9  -1  10 620.400 113.796   8
   9   1  10 838.364 138.116   3
  -9   1  11 1427.61 179.339   3
  -9  -1  11 1764.96 204.464   3
  -9  -1  11 1320.37 163.245   8
   9  -1  11 1746.43 202.516   3
   9   2 -10 1527.36 164.173   4
  -9   2 -10 1537.05 229.183   1
  -9  -2 -10 1401.41 206.476   1
   9  -2 -10 1731.43 208.329   2
  -9   2  -9 5593.79 421.407   1
   9   2  -9 4891.91 307.621   4
  -9  -2  -9 5616.38 394.785   1
   9  -2  -9 5832.27 374.632   2
   9   2  -8 2915.50 196.594   9
  -9   2  -8 3706.72 321.380   1
   9   2  -8 2881.38 223.726   4
  -9  -2  -8 2972.54 273.654   1
   9  -2  -8 3093.39 258.393   2
   9   2  -7 19609.2 646.354   9
   9   2  -7 18744.4 683.276   4
  -9   2  -7 20664.8 823.084   1
  -9  -2  -7 20725.6 778.260   1
  -9   2  -7 19266.7 698.531   7
   9  -2  -7 19336.0 731.628   2
  -9  -2  -6 5954.34 343.064   5
   9   2  -6 6433.56 310.800   9
  -9  -2  -6 7117.94 310.883   4
   9   2  -6 6540.76 338.644   4
  -9   2  -6 7083.44 419.850   1
  -9  -2  -6 6897.24 383.267   1
  -9   2  -6 6638.82 340.870   7
   9  -2  -6 6535.11 360.530   2
  -9   2  -6 6543.72 257.594   6
   9   2  -5 20486.8 659.636   9
  -9  -2  -5 20653.8 650.161   4
   9   2  -5 19272.9 678.613   4
  -9   2  -5 20447.2 769.866   1
  -9   2  -5 19341.7 680.700   7
   9  -2  -5 19189.5 700.936   2
  -9  -2  -5 20926.2 730.589   1
  -9  -2  -5 19294.4 694.624   5
  -9   2  -5 20530.8 604.912   6
   9   2  -4 14222.3 518.511   9
  -9  -2  -4 14586.5 552.510   5
  -9  -2  -4 15929.4 527.385   4
   9   2  -4 13621.2 531.904   4
   9  -2  -4 14791.2 527.394   8
  -9   2  -4 14683.3 544.109   7
   9  -2  -4 13890.4 547.805   2
  -9   2  -4 14779.3 603.438   1
  -9   2  -4 14205.5 478.354   6
  -9  -2  -3 19543.3 671.277   5
   9   2  -3 18702.7 641.832   9
  -9  -2  -3 20573.3 652.327   4
   9   2  -3 19921.7 668.467   4
   9  -2  -3 19392.6 669.606   2
  -9   2  -3 19975.2 667.713   7
  -9   2  -3 19381.1 614.011   6
   9   2  -3 20840.5 658.759   3
   9   2  -2 3892.41 230.424   3
  -9  -2  -2 3469.73 226.305   5
  -9   2  -2 3935.87 268.263  10
  -9  -2  -2 3876.52 235.824  10
   9   2  -2 3438.11 217.103   9
  -9  -2  -2 3595.19 219.863   4
   9   2  -2 3531.21 226.843   4
   9  -2  -2 3581.38 228.932   2
  -9   2  -2 3342.51 220.202   7
  -9   2  -2 3666.33 207.997   6
  -9  -2  -1 20832.6 697.548   5
   9  -2  -1 21757.2 743.736  10
  -9   2  -1 21181.7 734.466  10
  -9  -2  -1 20562.3 684.545  10
   9   2  -1 21153.1 677.927   9
   9   2  -1 18875.6 667.374   4
  -9  -2  -1 20006.9 653.474   8
   9  -2  -1 19957.9 674.077   2
  -9  -2  -1 21041.6 540.966   2
  -9   2  -1 20305.5 678.854   7
   9  -2  -1 22166.6 698.858   1
  -9   2  -1 19312.4 642.200   6
   9   2  -1 20818.0 696.303   5
   9   2   0 8139.00 354.903  10
   9  -2   0 8225.30 403.679  10
  -9   2   0 7931.73 391.403  10
  -9  -2   0 7747.33 360.738  10
   9   2   0 8403.67 363.833   9
   9   2   0 8249.43 360.054   4
  -9  -2   0 7607.00 344.339   8
   9   2   0 8117.15 345.041   8
   9  -2   0 7420.11 347.276   2
   9  -2   0 8369.56 374.349   1
   9   2   0 8129.13 320.928   7
  -9  -2   0 7708.14 271.755   2
   9   2   0 8042.41 372.989   1
   9  -2   0 8211.84 349.688   6
  -9   2   0 7598.12 338.786   6
   9   2   0 8457.63 388.671   5
  -9  -2   0 7345.23 367.742   5
   9   2   1 20743.4 673.764  10
   9  -2   1 21270.1 740.813  10
  -9  -2   1 20975.4 702.323  10
  -9   2   1 20680.5 730.355  10
   9   2   1 19686.1 673.226   9
   9  -2   1 21472.8 704.643   1
   9   2   1 18892.7 658.513   4
  -9  -2   1 19442.2 662.591   8
   9  -2   1 20416.1 674.842   2
   9   2   1 21260.3 654.249   8
   9   2   1 21326.5 709.920   1
   9   2   1 21081.0 646.219   7
  -9  -2   1 19293.0 590.003   2
   9  -2   1 21637.2 660.025   6
  -9   2   1 20191.3 664.874   6
   9   2   1 21990.9 738.925   5
  -9  -2   1 20557.0 724.274   5
  -9   2   2 3258.95 241.909  10
   9   2   2 3860.25 240.213  10
   9  -2   2 3930.35 252.655   1
   9   2   2 3625.44 230.441   9
  -9  -2   2 3872.54 249.293  10
   9   2   2 4412.48 265.390   1
   9   2   2 3600.52 220.255   4
   9  -2   2 3328.25 221.855   2
  -9  -2   2 3314.67 220.819   8
   9   2   2 3756.65 208.426   8
   9   2   2 3765.91 218.727   7
  -9  -2   2 3423.65 192.687   2
   9  -2   2 3560.27 207.518   6
  -9   2   2 3222.97 213.595   6
   9   2   2 4364.21 278.476   5
  -9  -2   2 3609.97 256.824   5
  -9  -2   3 19124.0 690.891  10
  -9   2   3 19772.4 507.267   5
  -9   2   3 18806.3 700.714  10
   9  -2   3 19347.8 514.518   5
   9   2   3 19497.5 680.005  10
   9   2   3 20728.5 703.800   1
   9   2   3 18838.4 650.864   9
   9  -2   3 19227.1 667.270   2
   9   2   3 18662.6 628.357   4
  -9  -2   3 18080.1 650.790   8
   9   2   3 18440.7 593.911   8
  -9  -2   3 18972.1 615.849   2
   9  -2   3 19744.1 610.033   6
  -9   2   3 18925.6 649.841   6
  -9  -2   3 18622.0 697.108   5
  -9   2   3 18901.7 482.722   3
   9  -2   3 19721.3 527.588   3
  -9  -2   4 14904.6 601.640  10
  -9   2   4 14601.1 601.471  10
   9   2   4 16154.0 601.741  10
  -9   2   4 15338.9 445.712   5
   9  -2   4 14850.3 452.422   5
   9   2   4 13928.7 543.648   9
   9  -2   4 14250.4 564.987   2
   9   2   4 14432.5 523.347   4
  -9  -2   4 14466.1 561.089   8
   9   2   4 14881.1 488.593   8
   9  -2   4 14919.2 495.792   6
  -9   2   4 13831.8 541.001   6
  -9   2   4 15409.0 425.708   3
  -9  -2   4 14800.5 589.179   5
   9  -2   4 14888.3 456.684   3
  -9  -2   5 17797.1 717.445  10
  -9   2   5 18047.4 719.900  10
   9  -2   5 19779.4 585.861   5
   9   2   5 18226.0 657.685   9
   9  -2   5 18306.1 686.548   2
  -9  -2   5 18280.0 675.080   8
   9   2   5 19483.5 637.451   4
   9   2   5 19141.8 582.737   8
  -9  -2   5 19808.0 515.688   7
  -9   2   5 18410.4 662.609   6
  -9   2   5 19361.2 555.730   3
  -9  -2   5 19002.2 702.962   5
   9  -2   5 19508.8 586.976   3
  -9  -2   6 6727.06 409.084  10
  -9   2   6 6747.29 403.320  10
   9  -2   6 6867.85 306.800   5
  -9   2   6 6640.34 293.657   5
   9  -2   6 6942.55 292.441   9
   9   2   6 6547.25 343.574   9
   9  -2   6 7275.03 292.319   9
  -9  -2   6 6778.77 363.816   8
   9   2   6 6830.51 275.940   8
   9   2   6 7168.76 336.672   4
   9  -2   6 7445.56 269.269   4
  -9   2   6 6956.71 355.876   6
  -9   2   6 6922.69 285.767   3
  -9  -2   6 6420.03 370.930   5
   9  -2   6 7052.21 307.704   3
  -9   2   7 19148.7 787.349  10
   9  -2   7 20936.8 606.008   9
   9   2   7 20064.5 714.447   9
   9  -2   7 19892.4 526.495   4
  -9  -2   7 20111.8 737.696   8
   9   2   7 21183.8 698.418   4
   9   2   7 19449.1 721.641   3
  -9   2   7 19975.3 711.911   6
  -9   2   7 20445.9 641.930   3
  -9  -2   7 20105.3 760.524   5
   9  -2   7 19663.8 657.307   3
  -9   2   8 2962.54 285.339  10
   9   2   8 2917.75 232.345   9
  -9  -2   8 3130.96 248.826   8
   9   2   8 3157.55 217.499   4
   9   2   8 3138.09 247.859   3
  -9   2   8 2872.69 227.104   6
  -9  -2   8 2884.09 255.118   5
  -9   2   8 3026.03 204.702   3
   9  -2   8 2655.28 204.987   3
  -9  -2   9 5481.13 355.848   3
   9   2   9 5504.25 345.210   9
  -9  -2   9 5699.98 353.051   8
   9   2   9 5809.76 359.571   3
  -9   2   9 5136.20 315.867   6
  -9  -2   9 5348.37 368.391   5
  -9   2   9 5455.21 305.715   3
   9  -2   9 5303.73 315.460   3
   9   2  10 1318.76 175.207   3
  -9  -2  10 1543.22 203.934   5
   9  -2  10 1565.30 177.466   3
  -9  -2  10 1723.98 207.771   3
  -9  -2  10 1668.23 192.525   8
  -9   2  10 1486.55 168.525   6
  -9   2  10 1797.57 177.081   3
  -9  -2  11 4049.57 307.548   8
   9  -2  11 4098.02 305.520   3
  -9  -3 -10 349.537 103.916   1
  -9  -3  -9 1482.20 189.840   1
   9   3  -9 1569.51 171.553   4
   9  -3  -9 1891.95 218.467   2
  -9   3  -9 1949.81 239.882   1
   9  -3  -8 28.1485 54.0458   2
   9   3  -8 61.6630 42.9826   4
  -9  -3  -8 53.4634 63.3381   1
  -9   3  -8 115.864 66.2092   1
  -9  -3  -7 4521.13 329.252   5
   9   3  -7 4795.02 269.758   9
   9   3  -7 4199.60 285.423   4
  -9   3  -7 5136.84 363.223   1
  -9   3  -7 4648.82 298.396   7
  -9  -3  -7 4540.49 303.551   1
   9  -3  -7 4979.35 334.306   2
  -9  -3  -6 2452.05 231.124   5
   9   3  -6 2403.76 185.444   9
   9   3  -6 2369.67 202.784   4
  -9   3  -6 2409.78 233.240   1
  -9   3  -6 2189.73 197.041   7
   9  -3  -6 2075.38 209.471   2
  -9  -3  -6 2068.89 189.184   1
  -9   3  -6 2271.29 159.139   6
  -9  -3  -5 4609.17 315.686   5
   9   3  -5 4897.19 275.791   9
   9   3  -5 4447.01 283.869   4
  -9   3  -5 4554.13 289.885   7
   9  -3  -5 5029.91 321.166   2
  -9   3  -5 4534.84 307.900   1
  -9   3  -5 4889.93 240.753   3
  -9   3  -5 5178.39 259.901   6
   9   3  -4 7346.90 353.257   9
   9   3  -4 6902.40 363.324   4
   9  -3  -4 7451.06 393.218   2
  -9   3  -4 7548.63 378.264   7
  -9  -3  -4 7979.19 414.788   5
  -9   3  -4 7464.34 392.716   1
  -9   3  -4 7588.65 339.350   6
  -9  -3  -3 11381.9 513.943   5
   9   3  -3 10933.7 460.121   9
   9   3  -3 10383.6 469.473   4
  -9  -3  -3 11370.5 435.717   8
   9  -3  -3 11998.2 514.308   2
  -9   3  -3 12186.8 494.705   7
  -9   3  -3 11312.5 448.326   6
  -9   3  -3 11630.3 363.636   3
   9  -3  -2 474.316 103.200   2
  -9   3  -2 600.381 110.191  10
  -9  -3  -2 288.605 84.8449   5
   9  -3  -2 481.829 83.7273   1
   9   3  -2 533.928 92.3342   9
  -9  -3  -2 520.232 85.1123   8
  -9  -3  -2 431.455 27.8882   2
   9   3  -2 457.388 91.3182   4
  -9   3  -2 547.931 100.253   7
   9   3  -2 370.315 57.7054   7
  -9   3  -2 507.844 46.9317   3
  -9   3  -2 559.392 91.6072   6
  -9   3  -1 2718.60 217.073  10
   9   3  -1 2825.98 211.424   9
   9   3  -1 2820.43 215.803   4
  -9  -3  -1 2905.55 200.817   8
   9  -3  -1 3027.17 227.971   2
   9  -3  -1 3178.42 209.505   1
  -9  -3  -1 3087.48 191.691  10
   9   3  -1 2976.72 173.087   7
  -9  -3  -1 2903.23 131.089   2
  -9   3  -1 2734.76 96.3737   3
  -9   3  -1 2921.97 209.995   6
  -9  -3  -1 2731.02 230.339   5
  -9  -3   0 4874.22 252.273  10
   9   3   0 4614.03 277.705   9
   9  -3   0 5035.73 274.887   1
  -9   3   0 5134.99 299.503  10
   9   3   0 4683.60 284.105   4
  -9  -3   0 4384.62 265.560   8
   9  -3   0 4799.67 300.746   2
   9   3   0 5026.71 274.738   1
   9   3   0 4834.07 244.834   7
  -9  -3   0 4698.52 204.477   2
  -9   3   0 4324.98 266.768   6
  -9  -3   0 5386.68 327.875   5
  -9  -3   1 2711.55 185.362  10
  -9   3   1 2669.13 213.115  10
   9  -3   1 2598.18 198.467   1
   9   3   1 2790.16 212.962   9
   9   3   1 2854.95 201.902   1
   9   3   1 2379.65 198.447   4
   9  -3   1 2501.69 215.758   2
  -9  -3   1 2700.77 206.931   8
   9   3   1 2952.58 191.233   7
  -9   3   1 2837.14 210.550   6
  -9  -3   1 2813.47 240.990   5
  -9   3   2 386.971 87.1791  10
   9   3   2 477.793 75.6974  10
  -9  -3   2 505.279 115.029   5
  -9  -3   2 523.343 91.7845  10
   9   3   2 414.076 87.4074   9
  -9  -3   2 534.470 78.3824   2
  -9  -3   2 477.882 98.2779   8
   9   3   2 452.106 85.8310   1
   9   3   2 380.139 82.7018   4
  -9   3   2 378.140 84.4882   6
   9  -3   2 414.193 98.0455   2
  -9  -3   3 11530.3 474.632  10
   9   3   3 11352.5 451.223  10
  -9   3   3 10650.0 495.498  10
   9  -3   3 11714.2 335.436   5
   9   3   3 11527.1 496.489   9
   9  -3   3 10762.3 508.425   2
   9   3   3 11366.7 482.773   4
  -9  -3   3 11360.5 495.605   8
   9   3   3 11920.0 438.323   8
   9  -3   3 11587.3 447.807   4
  -9   3   3 11050.0 484.362   6
  -9   3   3 11517.5 320.763   3
   9  -3   3 11188.8 342.553   5
  -9  -3   3 10895.9 537.935   5
  -9   3   3 11439.5 340.086   5
   9   3   3 12118.9 481.795   1
  -9  -3   4 7492.60 376.321  10
  -9   3   4 6661.11 380.996  10
   9   3   4 7450.70 361.493  10
   9  -3   4 7596.58 271.932   5
   9   3   4 6342.54 362.165   9
   9  -3   4 6994.53 325.258   9
   9  -3   4 6776.51 391.754   2
  -9  -3   4 7643.93 394.806   8
   9   3   4 7490.68 371.406   4
   9   3   4 7125.44 312.585   8
   9  -3   4 7537.18 331.728   4
  -9   3   4 7233.00 374.472   6
  -9   3   4 7326.31 252.720   3
   9   3   4 7189.50 361.484   1
   9  -3   4 7383.59 270.835   5
  -9  -3   4 6446.90 401.184   5
  -9   3   4 7740.48 270.273   5
   9  -3   5 4940.59 244.327   3
  -9  -3   5 4884.98 314.203  10
  -9   3   5 4523.63 312.700  10
   9  -3   5 4909.07 229.493   5
   9   3   5 4931.77 311.239   9
   9  -3   5 5016.71 256.214   9
   9  -3   5 4623.42 321.211   2
  -9  -3   5 4704.78 310.817   8
   9   3   5 4694.66 293.829   4
   9   3   5 5008.49 240.490   8
   9  -3   5 4824.64 251.038   4
  -9   3   5 4815.42 302.516   6
  -9   3   5 4857.26 215.458   3
  -9  -3   5 4340.34 322.355   5
  -9  -3   6 1948.07 214.409  10
  -9   3   6 1682.38 195.301  10
   9   3   6 2009.85 198.333   9
  -9  -3   6 1793.87 195.129   8
   9   3   6 1801.27 180.113   4
  -9   3   6 2092.59 200.350   6
  -9   3   6 2031.44 141.609   3
  -9  -3   6 2094.46 219.918   5
   9  -3   6 1920.21 155.854   3
  -9  -3   7 4467.93 336.087  10
  -9   3   7 4200.04 322.885  10
   9   3   7 4867.10 323.934   9
  -9  -3   7 4877.26 333.758   8
   9   3   7 4441.49 298.230   4
  -9   3   7 4763.68 310.360   6
  -9   3   7 4322.12 239.652   3
  -9  -3   7 4565.71 339.664   5
   9  -3   7 4641.47 266.589   3
  -9   3   8 47.9702 84.8273  10
  -9  -3   8 49.1978 61.9176   5
  -9   3   8 19.5824 31.2612   3
   9  -3   8 82.4475 41.7519   3
   9   3   8 119.962 75.9413   9
  -9  -3   8 13.8168 61.3265   8
   9   3   8 102.835 61.2547   4
   9   3   8 75.3385 71.1527   3
  -9   3   8 5.43884 57.8523   6
  -9   3   9 1637.94 223.724  10
  -9  -3   9 1899.52 227.158   5
   9   3   9 1710.42 209.279   9
  -9  -3   9 1795.10 212.526   8
   9   3   9 1918.20 213.852   3
  -9   3   9 1702.95 187.857   6
   9  -3   9 1748.12 179.658   3
   9  -3  10 872.539 136.352   3
   9   3  10 727.524 141.161   9
  -9   3  10 966.568 149.726   6
   9  -4  -8 235.862 109.174   2
  -9   4  -8 89.4907 86.3728   1
   9   4  -8 163.033 65.0547   4
  -9   4  -8 155.631 67.9220   7
   9  -4  -7 43.4056 76.8151   2
  -9  -4  -7 190.125 92.1395   5
   9   4  -7 170.577 62.5504   4
  -9   4  -7 59.9842 56.4881   7
  -9   4  -7 64.6760 59.0156   1
   9  -4  -6 1034.52 158.225   2
  -9   4  -6 1107.08 157.156   1
  -9  -4  -6 873.275 159.070   5
   9   4  -6 887.099 119.049   9
   9   4  -6 618.921 123.027   4
  -9   4  -6 716.320 121.779   7
  -9   4  -6 1040.36 128.737   6
   9  -4  -5 237.746 97.5754   2
  -9  -4  -5 515.123 129.414   5
   9   4  -5 310.748 77.5770   9
   9   4  -5 263.437 79.7126   4
  -9   4  -5 460.539 95.5130   7
  -9   4  -5 361.884 92.0388   1
  -9   4  -5 342.976 80.6745   6
  -9  -4  -4 186.062 92.6376   5
   9   4  -4 46.2464 51.8967   9
  -9  -4  -4 119.655 52.7676   8
   9  -4  -4 329.897 98.1044   2
   9   4  -4 192.824 79.6175   4
  -9   4  -4 91.6372 62.9840   7
  -9   4  -4 250.255 79.0996   6
   9  -4  -3 53.4021 80.8708   2
  -9  -4  -3 101.475 73.2001   5
   9   4  -3 142.126 62.5539   9
  -9  -4  -3 153.087 65.1440   8
   9   4  -3 191.339 79.3628   4
  -9   4  -3 116.311 67.3046   7
  -9   4  -3 144.650 68.3843   6
   9  -4  -2 1339.16 175.858   2
  -9  -4  -2 1281.02 175.822   5
   9   4  -2 1415.63 162.297   9
  -9  -4  -2 1212.28 80.6107   2
   9   4  -2 1544.16 176.907   4
  -9  -4  -2 1223.09 137.754   8
  -9   4  -2 1329.20 166.824   7
  -9   4  -2 1343.63 157.044   6
   9  -4  -1 459.443 109.199   2
  -9   4  -1 501.633 94.3551  10
  -9  -4  -1 538.676 115.939   5
   9   4  -1 422.185 75.9804   1
   9   4  -1 392.259 87.7927   9
  -9  -4  -1 270.373 78.9734   8
   9   4  -1 358.711 94.3221   4
   9   4  -1 609.985 85.2747   7
  -9   4  -1 466.373 98.2166   6
  -9   4   0 1833.95 171.960  10
  -9  -4   0 1957.28 135.564  10
   9  -4   0 1664.74 151.797   1
   9   4   0 2057.44 198.428   9
   9   4   0 2169.52 163.802   1
  -9  -4   0 2058.83 191.735   8
   9   4   0 1698.71 187.338   4
   9  -4   0 1522.64 185.157   2
  -9   4   0 2418.70 216.213   6
  -9  -4   0 2179.45 224.506   5
  -9   4   1 395.056 81.8293  10
  -9  -4   1 493.731 71.1295  10
  -9  -4   1 429.094 108.432   5
   9   4   1 398.431 77.2806   1
   9   4   1 463.109 101.991   9
  -9  -4   1 423.188 70.7192   2
  -9  -4   1 373.587 97.4889   8
   9   4   1 510.696 114.120   4
  -9   4   1 509.614 105.891   6
   9  -4   1 416.512 95.2612   2
   9  -4   2 1222.82 72.0052   5
  -9  -4   2 1137.14 112.717  10
  -9   4   2 1250.47 147.135  10
  -9  -4   2 1468.96 194.716   5
   9   4   2 1240.15 163.479   9
  -9  -4   2 1492.65 177.896   8
   9   4   2 1207.89 158.153   4
  -9   4   2 1328.19 82.6838   3
  -9   4   2 1414.20 173.261   6
   9  -4   2 1424.54 183.212   2
   9   4   2 1367.87 130.446   1
  -9   4   3 182.995 34.7953   3
  -9  -4   3 151.661 49.5032  10
  -9   4   3 58.3783 46.5974  10
  -9  -4   3 182.547 97.1842   5
   9  -4   3 208.064 37.9825   5
   9   4   3 186.791 75.0643   9
  -9  -4   3 120.674 62.7602   8
   9   4   3 111.990 57.4324   4
  -9   4   3 291.449 84.2882   6
   9  -4   3 111.471 66.9350   2
  -9   4   4 226.729 76.5599  10
   9  -4   4 159.501 47.2826   5
  -9  -4   4 150.229 92.2519   5
   9   4   4 269.644 99.9952   9
  -9  -4   4 109.471 59.3884   8
  -9  -4   4 313.177 78.2117  10
   9   4   4 186.095 64.7906   4
  -9   4   4 98.1553 67.6778   6
   9  -4   4 302.083 106.916   2
  -9  -4   5 324.172 84.2680  10
  -9   4   5 557.384 117.232  10
  -9  -4   5 483.343 138.765   5
   9   4   5 233.656 87.7694   9
  -9  -4   5 410.576 102.030   8
   9   4   5 181.556 72.9356   4
  -9   4   5 180.542 86.1529   6
   9  -4   5 428.726 116.132   2
  -9  -4   6 825.873 133.394  10
  -9   4   6 937.739 153.511  10
  -9  -4   6 955.348 174.492   5
   9   4   6 789.134 142.974   9
  -9  -4   6 952.565 161.024   8
   9   4   6 892.001 140.750   4
  -9   4   6 970.858 151.950   6
   9  -4   6 1129.88 173.103   2
  -9  -4   7 347.830 117.711  10
  -9   4   7-42.9296 81.5723  10
  -9  -4   7 152.098 85.2038   5
   9   4   7 253.368 105.670   9
  -9  -4   7 229.423 99.0769   8
   9   4   7 201.712 82.7771   4
  -9   4   7 240.140 88.2484   6
  -9  -4   8 150.144 99.4784  10
  -9   4   8 144.439 85.8974  10
   9  -4   8 206.131 71.8293   3
   9   4   8 102.024 94.7247   9
   9   4   8 109.314 70.8105   4
  -9   4   8 299.930 89.3799   6
  -9  -4   9 212.221 109.779  10
  -9   4   9 299.509 107.312  10
   9   5  -7 1784.99 216.138   4
   9   5  -6 344.904 117.254   4
  -9   5  -6 259.519 90.4229   7
   9   5  -5 2216.93 220.294   9
  -9  -5  -5 1954.18 248.411   5
   9   5  -5 2781.61 263.696   4
   9  -5  -5 2261.20 260.079   2
  -9   5  -5 1860.30 205.174   7
  -9   5  -5 2259.68 219.459   6
   9  -5  -4 179.481 104.038   2
  -9  -5  -4 187.913 94.3156   5
   9   5  -4 324.554 100.774   9
  -9   5  -4 183.674 79.8234   7
   9   5  -4 340.161 107.638   4
  -9   5  -4 331.647 107.209   6
   9  -5  -3 2071.32 239.517   2
   9   5  -3 2759.69 248.711   9
  -9  -5  -3 2598.54 216.018   8
   9   5  -3 2890.80 268.288   4
  -9  -5  -3 2936.47 284.085   5
  -9   5  -3 2034.02 218.856   7
  -9   5  -3 2337.08 231.683   6
   9  -5  -2 673.551 136.777   2
  -9  -5  -2 1054.13 173.354   5
   9   5  -2 832.910 143.687   9
  -9  -5  -2 829.977 131.056   8
  -9   5  -2 578.683 127.305   7
   9   5  -2 821.316 145.749   4
  -9   5  -2 762.899 144.568   6
   9  -5  -1 928.285 156.972   2
  -9  -5  -1 855.550 156.915   5
   9   5  -1 710.786 134.928   9
  -9  -5  -1 709.667 118.242   8
   9   5  -1 893.731 150.302   4
  -9   5  -1 1003.67 156.274   6
  -9   5   0 180.913 59.9187  10
  -9  -5   0 269.190 115.751   5
   9   5   0 158.073 82.9235   9
  -9  -5   0 226.906 92.2736   8
   9   5   0 186.271 84.0235   4
  -9   5   0 220.900 69.9780   6
   9  -5   0 103.215 74.9313   2
  -9  -5   1 774.915 141.412   5
   9   5   1 1096.24 165.183   9
  -9  -5   1 649.385 131.092   8
  -9   5   1 676.496 108.171  10
   9   5   1 1022.17 162.666   4
  -9   5   1 642.925 132.414   6
   9  -5   1 958.729 160.782   2
  -9   5   2 773.561 113.536  10
  -9  -5   2 866.572 166.418   5
   9   5   2 878.528 157.669   9
  -9  -5   2 702.510 135.311   8
   9   5   2 778.181 146.952   4
  -9   5   2 876.985 158.797   6
   9  -5   2 888.276 157.736   2
  -9   5   3 2516.00 216.206  10
   9   5   3 2250.32 252.931   9
   9  -5   3 2887.44 277.593   2
  -9  -5   3 2768.23 267.778   8
   9   5   3 2471.33 257.509   4
  -9   5   3 2574.53 264.415   6
  -9  -5   3 2885.61 292.959   5
  -9   5   4 216.593 77.0012  10
  -9  -5   4 346.288 126.462   5
   9   5   4 169.308 94.2865   9
  -9  -5   4 514.142 133.775   8
   9   5   4 242.671 87.4447   4
  -9   5   4 349.521 128.351   6
   9  -5   4 230.311 77.7865   2
  -9  -5   5 2345.78 277.100   5
   9  -5   5 2473.49 268.010   2
   9   5   5 2333.86 263.123   9
  -9  -5   5 2417.70 268.925   8
   9   5   5 2303.48 251.767   4
  -9   5   5 2356.21 255.692   6
   9   5   6 299.672 101.187   4
   9   5   7 923.852 161.935   4
   9   6  -4 539.238 137.900   9
  -9   6  -4 603.296 134.402   6
   9   6  -3 2473.60 267.662   9
  -9   6  -3 2799.13 266.584   7
  -9   6  -3 2639.72 269.803   6
   9   6  -2 1861.10 235.604   9
  -9  -6  -2 1898.54 214.028   8
  -9   6  -2 1771.15 216.378   7
  -9  -6  -1 3102.81 281.683   8
  -9  -6   0 158.277 74.8768   8
  -9  -6   1 3636.67 322.537   8
  10   0 -10 2484.27 225.844   4
 -10   0 -10 2659.10 307.140   1
  10   0  -9 3469.21 261.721   4
 -10   0  -9 3602.03 341.394   1
  10   0  -8 3092.20 239.585   4
 -10   0  -8 3103.83 300.760   1
  10   0  -8 2753.45 243.540   2
 -10   0  -7 6734.07 439.771   1
  10   0  -7 7231.68 392.841   2
  10   0  -6 237.594 56.4923   3
  10   0  -6 190.392 70.3093   2
 -10   0  -6 283.234 87.3105   1
 -10   0  -5 1068.82 153.690   1
  10   0  -5 803.755 115.644   2
  10   0  -5 963.125 94.8651   3
 -10   0  -4 12081.0 477.350   7
 -10   0  -4 11761.9 532.644   1
  10   0  -4 11384.8 463.785   2
  10   0  -4 11797.1 390.380   3
 -10   0  -3 24447.6 884.023  10
 -10   0  -3 24717.7 793.030   7
 -10   0  -3 25324.9 723.547   5
  10   0  -3 26178.8 791.736   2
  10   0  -3 26520.0 694.543   3
 -10   0  -2 10359.8 345.509   5
 -10   0  -2 9929.89 478.126  10
 -10   0  -2 10382.3 414.952   7
  10   0  -2 10405.8 396.213   2
  10   0  -2 10443.1 320.454   3
  10   0  -1 32360.9 1035.76  10
 -10   0  -1 31822.9 854.485   5
 -10   0  -1 28737.6 1018.82  10
 -10   0  -1 33807.1 900.537   2
  10   0  -1 35691.6 977.971   8
 -10   0  -1 32546.2 948.299   7
  10   0  -1 34216.8 923.702   2
  10   0  -1 36174.6 960.982   6
  10   0  -1 32587.2 827.120   3
 -10   0   0 31409.1 826.525   5
  10   0   0 31246.0 1001.66  10
 -10   0   0 29253.4 997.303  10
  10   0   0 31295.2 917.597   4
  10   0   0 33994.0 941.070   8
 -10   0   0 30591.6 904.570   7
  10   0   0 32210.9 869.744   2
  10   0   0 31211.4 989.033   1
  10   0   0 33191.3 913.103   6
  10   0   0 31606.6 827.550   5
  10   0   1 31649.2 1046.62  10
 -10   0   1 31266.8 1050.18  10
  10   0   1 33924.7 956.404   4
  10   0   1 35468.6 978.162   8
 -10   0   1 33259.7 924.098   2
  10   0   1 32145.1 1038.38   1
  10   0   1 33575.7 890.545   2
 -10   0   1 32392.9 940.026   7
  10   0   1 34452.8 941.331   6
  10   0   1 32968.5 905.687   5
 -10   0   1 35041.4 902.707   5
 -10   0   2 9720.63 477.853  10
  10   0   2 10657.7 418.183   9
  10   0   2 10492.6 397.883   4
  10   0   2 11829.2 431.096   8
 -10   0   2 10607.4 399.516   2
  10   0   2 10639.4 349.187   2
 -10   0   2 10649.5 398.449   7
  10   0   2 10678.8 387.775   6
 -10   0   2 9374.53 379.192   5
  10   0   2 9886.28 386.447   5
  10   0   3 25440.1 786.716   9
  10   0   3 25553.0 758.366   4
  10   0   3 26991.3 796.755   8
  10   0   3 25490.0 696.773   2
 -10   0   3 27566.5 802.261   2
 -10   0   3 23506.1 875.655  10
 -10   0   3 24938.0 759.344   7
  10   0   3 25743.8 719.656   3
  10   0   3 25978.4 747.774   6
 -10   0   3 25941.2 768.580   5
  10   0   3 27148.8 769.157   5
 -10   0   4 13379.4 585.282  10
  10   0   4 12238.7 470.406   9
  10   0   4 13046.6 445.556   4
  10   0   4 12902.0 397.054   2
 -10   0   4 12414.8 451.911   7
  10   0   4 13055.9 436.197   6
  10   0   4 13419.8 443.937   3
 -10   0   4 13892.2 477.336   5
  10   0   4 13191.9 465.101   5
  10   0   5 1444.81 131.463   5
 -10   0   5 1709.63 133.671   3
  10   0   5 1535.33 136.352   9
 -10   0   5 1276.04 180.642  10
  10   0   5 1411.22 111.954   4
  10   0   5 1410.79 99.7861   2
  10   0   5 1430.60 110.443   6
  10   0   5 1495.97 127.933   3
 -10   0   5 1293.48 125.238   5
  10   0   6 542.687 87.2344   3
 -10   0   6 688.567 140.612  10
 -10   0   6 608.220 87.9991   3
  10   0   6 627.668 87.6871   9
  10   0   6 704.545 74.2889   2
  10   0   6 683.803 73.3723   4
  10   0   6 763.483 76.0395   6
 -10   0   7 6792.04 449.748  10
  10   0   7 6933.36 316.508   9
  10   0   7 7175.28 288.169   2
  10   0   7 7257.63 267.412   4
  10   0   7 6657.67 339.408   3
 -10   0   7 6677.88 330.125   3
  10   0   8 2406.93 174.963   9
  10   0   8 2389.62 161.183   2
  10   0   8 2488.60 205.919   3
 -10   0   8 2473.53 197.146   3
  10   0   9 3607.90 263.106   3
 -10   0   9 3313.94 245.796   3
  10   0  10 2818.35 250.078   3
 -10   0  10 2689.64 232.329   3
 -10   0  11 1752.18 197.140   3
  10   1 -10 2741.13 232.748   4
 -10   1 -10 2838.62 318.206   1
 -10  -1 -10 2787.68 312.102   1
  10  -1 -10 3348.23 290.446   2
  10   1  -9 1771.82 161.591   9
  10   1  -9 1806.77 182.496   4
 -10   1  -9 1928.48 250.097   1
  10  -1  -9 1890.64 209.353   2
 -10  -1  -9 1810.03 240.224   1
 -10  -1  -8 1460.62 200.100   1
  10   1  -8 986.930 120.755   9
  10  -1  -8 1307.14 167.272   2
  10   1  -8 920.775 130.337   4
 -10   1  -8 1006.83 175.930   1
  10   1  -7 5942.34 307.770   9
  10   1  -7 5576.63 324.636   4
 -10   1  -7 6536.82 431.092   1
 -10  -1  -7 6247.88 406.083   1
  10  -1  -7 5752.69 350.340   2
  10   1  -6 3131.48 211.138   9
  10   1  -6 2820.16 217.435   4
 -10   1  -6 3003.17 273.363   1
 -10  -1  -6 3044.38 263.217   1
 -10   1  -6 3229.25 232.053   7
  10  -1  -6 3129.51 239.148   2
  10   1  -5 585.681 80.7705   3
 -10  -1  -5 699.216 103.539   5
  10   1  -5 587.475 95.1212   9
  10  -1  -5 634.813 106.978   2
  10   1  -5 703.332 105.071   2
 -10  -1  -5 832.818 141.760   1
  10   1  -5 812.981 110.537   4
 -10   1  -5 621.740 102.154   7
 -10   1  -5 575.415 117.735   1
  10   1  -4 2225.89 175.231   9
 -10  -1  -4 2465.42 177.440   5
  10   1  -4 2476.89 193.594   4
 -10   1  -4 2227.25 183.171   7
  10  -1  -4 2774.36 202.241   2
 -10   1  -4 2319.86 218.845   1
 -10  -1  -4 2654.86 224.445   1
  10   1  -4 2591.35 189.810   2
  10   1  -4 2618.63 165.550   3
 -10  -1  -3 6917.75 311.289   5
 -10   1  -3 7981.26 421.618  10
  10   1  -3 7598.47 342.989   9
  10   1  -3 7167.30 343.163   4
 -10   1  -3 6531.74 329.731   7
  10  -1  -3 7302.46 341.271   2
  10   1  -3 7205.92 321.887   2
  10   1  -3 7356.42 294.798   3
 -10  -1  -2 6506.43 288.689   5
 -10   1  -2 6908.96 385.897  10
 -10  -1  -2 7118.78 370.346  10
  10   1  -2 6954.06 324.550   9
  10   1  -2 6368.19 318.889   4
 -10   1  -2 6512.75 318.073   7
  10  -1  -2 6509.80 309.251   2
 -10  -1  -2 6859.38 318.780   7
 -10   1  -2 6232.01 287.049   6
  10   1  -2 6675.56 288.223   2
  10   1  -2 7112.99 279.681   3
  10   1  -1 3523.44 244.997  10
 -10  -1  -1 3480.27 196.644   5
  10   1  -1 3807.63 195.556   3
 -10   1  -1 2985.62 243.317  10
 -10  -1  -1 3602.27 256.038  10
  10   1  -1 3578.52 222.672   9
  10   1  -1 3530.60 222.312   4
 -10  -1  -1 3672.94 162.018   2
  10  -1  -1 3484.92 206.942   2
 -10   1  -1 3343.15 214.319   7
 -10  -1  -1 3316.46 209.341   7
  10   1  -1 3636.88 185.026   2
 -10   1  -1 3378.09 202.796   6
  10   1   0 30786.6 961.648  10
 -10  -1   0 29408.2 970.938  10
 -10   1   0 29926.4 991.532  10
  10   1   0 30597.6 916.374   9
  10   1   0 30899.1 911.859   4
 -10   1   0 32923.8 898.492   2
  10   1   0 32241.4 915.730   8
 -10  -1   0 29681.6 815.055   2
  10  -1   0 29628.4 869.848   2
  10   1   0 31393.1 875.784   7
 -10   1   0 29540.2 896.876   7
 -10  -1   0 31272.9 881.383   7
  10  -1   0 31921.1 967.277   1
  10   1   0 28148.3 953.345   1
  10  -1   0 30395.4 882.032   6
  10   1   0 29222.6 809.265   2
 -10   1   0 29090.4 881.007   6
  10   1   0 31858.1 894.934   6
  10   1   0 31845.2 896.195   5
 -10  -1   0 32383.8 895.284   5
 -10   1   1 4203.74 127.660   5
  10   1   1 4104.13 264.934  10
 -10  -1   1 4089.15 281.247  10
 -10   1   1 3791.65 278.123  10
  10   1   1 4256.20 244.975   9
  10   1   1 4286.29 237.869   4
 -10   1   1 4251.24 230.212   2
  10   1   1 4468.28 240.289   8
  10  -1   1 3823.20 207.753   2
  10   1   1 3935.60 268.885   1
 -10   1   1 4005.79 231.629   7
  10   1   1 4408.69 231.972   7
 -10  -1   1 4064.33 216.326   7
  10  -1   1 3939.14 216.610   6
  10   1   1 4027.59 168.118   2
 -10   1   1 4072.76 231.323   6
  10   1   1 4080.13 222.508   6
  10  -1   1 3921.04 115.946   3
  10  -1   1 3717.85 125.538   5
  10   1   1 3991.69 240.583   5
 -10  -1   1 3967.10 237.077   5
 -10  -1   2 6126.14 365.151  10
  10   1   2 7501.35 383.600  10
 -10   1   2 7622.37 404.583  10
  10   1   2 7041.90 334.684   9
  10   1   2 6934.90 318.215   4
 -10  -1   2 7105.33 339.246   8
 -10   1   2 7379.17 329.562   2
  10   1   2 8278.17 337.632   8
  10  -1   2 6691.17 294.522   2
 -10  -1   2 7297.27 306.201   2
 -10  -1   2 6994.36 295.220   7
  10  -1   2 7490.28 309.263   6
  10   1   2 7242.39 227.911   2
 -10   1   2 6864.21 326.033   6
  10   1   2 7370.31 312.154   6
  10  -1   2 7290.58 223.905   3
 -10   1   2 7433.62 251.132   5
 -10  -1   2 6903.08 348.017   5
  10   1   2 7579.29 357.740   5
  10  -1   2 7352.41 254.805   5
 -10  -1   3 7042.31 404.883  10
 -10   1   3 8694.22 442.721  10
  10   1   3 8375.67 370.846   9
  10   1   3 8698.77 351.499   4
 -10  -1   3 8510.36 382.083   8
  10   1   3 8644.04 350.862   8
  10  -1   3 7741.71 326.508   2
 -10  -1   3 8741.31 356.515   2
 -10  -1   3 8508.92 325.331   7
  10  -1   3 8385.87 331.950   6
  10   1   3 8109.62 228.957   2
 -10   1   3 8135.14 366.506   6
  10   1   3 8726.46 338.605   6
  10  -1   3 7906.43 272.816   3
 -10   1   3 8357.38 298.709   5
 -10  -1   3 9226.33 401.866   5
  10   1   3 9043.42 389.156   5
  10  -1   3 8498.25 298.914   5
  10  -1   4 2971.35 164.047   5
 -10  -1   4 2525.91 235.793  10
 -10   1   4 2470.56 234.159  10
 -10   1   4 2971.40 148.571   3
  10   1   4 2722.92 195.213   9
  10  -1   4 2951.86 170.871   4
  10   1   4 2694.61 174.482   4
  10  -1   4 2735.46 178.923   2
 -10  -1   4 2513.37 197.949   8
  10   1   4 2875.16 180.792   8
 -10  -1   4 2816.21 164.129   7
  10  -1   4 2874.38 168.420   6
  10   1   4 2752.90 171.613   6
 -10   1   4 2767.74 201.303   6
  10  -1   4 2624.97 146.551   3
 -10  -1   4 2669.33 202.512   5
  10   1   4 3201.35 213.876   5
  10  -1   5 1126.04 106.641   5
 -10  -1   5 855.730 148.756  10
 -10   1   5 1027.70 165.531  10
 -10  -1   5 928.760 125.832   5
  10  -1   5 1097.48 98.2168   4
  10  -1   5 864.155 100.160   9
  10   1   5 979.333 116.428   9
  10   1   5 1094.33 110.160   4
 -10  -1   5 1247.05 142.377   8
  10   1   5 879.749 100.413   8
 -10  -1   5 954.861 94.4311   7
  10  -1   5 1087.52 95.8619   6
  10   1   5 1223.34 108.939   6
  10  -1   5 1132.07 101.062   3
 -10   1   5 1154.80 133.438   6
  10  -1   5 1030.99 114.052   2
 -10   1   5 1064.55 96.6909   3
 -10  -1   6 3742.42 309.556  10
 -10   1   6 3302.79 286.546  10
  10  -1   6 3540.92 203.921   9
  10  -1   6 3575.38 213.995   5
  10   1   6 3434.37 225.361   9
  10  -1   6 3551.99 225.883   2
  10  -1   6 3424.27 167.177   4
 -10  -1   6 3340.77 239.623   8
  10   1   6 3493.44 202.280   8
  10   1   6 3533.49 198.403   4
 -10  -1   6 3524.44 183.021   7
  10  -1   6 3733.04 174.836   6
  10   1   6 3118.24 219.193   3
  10   1   6 3717.68 189.233   6
 -10   1   6 3435.29 237.117   6
  10  -1   6 3361.95 203.073   3
 -10  -1   6 3398.26 242.893   5
 -10   1   6 3435.92 195.409   3
 -10  -1   7 6688.07 442.598  10
 -10   1   7 5865.84 411.468  10
 -10  -1   7 6411.68 344.516   3
  10  -1   7 6605.52 292.516   9
  10   1   7 6469.36 325.395   9
  10  -1   7 6368.61 332.186   2
  10  -1   7 6288.33 223.601   4
 -10  -1   7 6468.83 355.857   8
  10   1   7 6717.98 292.768   8
  10   1   7 7439.14 308.258   4
 -10  -1   7 6954.22 274.686   7
  10   1   7 6061.89 334.056   3
  10  -1   7 6314.60 313.007   3
 -10  -1   7 6298.98 355.318   5
 -10   1   7 6826.38 310.981   3
 -10   1   8 1132.52 188.783  10
  10   1   8 1291.04 156.976   3
  10  -1   8 1086.31 131.944   3
  10  -1   8 1270.00 115.495   9
 -10  -1   8 1336.09 159.412   3
  10   1   8 1166.75 129.808   9
 -10  -1   8 1178.64 147.567   8
 -10  -1   8 1136.74 101.527   7
 -10   1   8 1185.94 130.844   3
 -10  -1   9 2082.90 206.232   3
  10   1   9 1909.72 177.527   9
 -10  -1   9 1741.42 185.432   8
  10   1   9 1667.55 186.480   3
  10  -1   9 1726.18 178.704   3
 -10   1   9 1947.08 176.962   3
 -10  -1  10 2960.48 257.668   3
 -10  -1  10 2730.66 239.493   8
  10   1  10 2640.83 245.153   3
  10  -1  10 2186.32 212.514   3
 -10   1  10 2908.83 233.291   3
  10  -1  11 1592.97 192.039   3
 -10   1  11 1538.09 179.973   3
 -10  -1  11 1524.70 199.538   3
 -10  -1  11 1797.94 193.075   8
 -10  -2 -10 601.909 135.564   1
  10   2 -10 951.943 137.361   4
 -10  -2  -9 291.203 115.426   1
  10  -2  -9 321.719 102.978   2
  10   2  -9 249.062 71.7930   4
 -10   2  -9 236.486 106.454   1
 -10   2  -8 123.985 95.6458   1
  10   2  -8 10.8054 27.8282   9
  10  -2  -8 49.2022 60.6388   2
 -10  -2  -8-64.4251 69.2680   1
  10   2  -8 139.299 80.2624   4
 -10   2  -7 135.774 61.5517   1
  10  -2  -7 227.805 83.3862   2
  10   2  -7 108.325 53.7178   9
  10   2  -7 185.875 73.7037   4
 -10   2  -7 96.7595 56.5863   7
 -10  -2  -7 131.940 75.2817   1
 -10  -2  -6 153.413 63.8618   5
  10  -2  -6 38.6093 52.6306   2
  10   2  -6 61.5178 49.9455   9
 -10  -2  -6-7.89439 52.6535   1
  10   2  -6 27.8556 43.7065   4
 -10   2  -6 115.752 82.4291   1
 -10   2  -6 81.2855 63.6630   7
 -10   2  -6 69.6317 29.0457   6
 -10   2  -5 1235.22 165.369   1
  10  -2  -5 1068.56 139.584   2
 -10  -2  -5 1096.74 136.284   5
  10   2  -5 842.172 112.760   9
  10   2  -5 1234.95 142.306   4
 -10   2  -5 1039.03 129.871   7
 -10  -2  -5 1207.02 150.235   1
 -10   2  -5 1063.36 102.390   6
  10  -2  -4 1178.66 140.423   2
 -10  -2  -4 1093.46 131.182   5
  10   2  -4 1054.80 121.611   9
  10   2  -4 983.219 123.881   4
 -10   2  -4 1071.98 134.921   7
 -10   2  -4 1092.91 109.338   6
 -10   2  -4 1136.66 152.229   1
 -10  -2  -3 1751.62 162.513   5
  10   2  -3 1585.87 151.197   9
  10   2  -3 1541.12 153.536   4
  10  -2  -3 1763.02 164.855   2
 -10   2  -3 1537.45 155.870   7
 -10   2  -3 1706.05 141.611   6
  10  -2  -2 471.266 91.8546   2
 -10  -2  -2 445.274 89.8957  10
 -10  -2  -2 539.456 94.4366   5
  10   2  -2 547.454 91.8601   3
  10   2  -2 606.823 97.9365   9
 -10   2  -2 824.159 131.281  10
  10   2  -2 574.286 96.3040   4
 -10   2  -2 447.792 87.5862   7
 -10   2  -2 442.114 77.7052   6
 -10  -2  -1 304.497 40.5093   2
  10  -2  -1 269.951 68.9695   2
 -10   2  -1 365.508 100.529  10
 -10  -2  -1 465.960 92.5746  10
  10   2  -1 575.993 97.6075   5
 -10  -2  -1 420.230 84.5058   5
  10   2  -1 397.416 78.8497   9
 -10  -2  -1 215.298 61.7608   8
  10   2  -1 335.852 73.6048   4
  10   2  -1 275.295 57.8399   7
 -10   2  -1 458.115 89.3112   7
 -10   2  -1 419.988 80.5145   6
  10   2   0 1429.37 149.410  10
  10  -2   0 962.006 119.294   2
  10   2   0 1177.71 139.298   5
 -10   2   0 1196.66 150.973  10
 -10  -2   0 1227.01 139.840  10
  10   2   0 1328.81 140.041   9
 -10  -2   0 899.978 123.373   5
  10   2   0 1258.45 135.394   4
 -10  -2   0 1125.37 127.339   8
 -10  -2   0 1153.64 88.7289   2
  10   2   0 1160.67 115.406   7
 -10   2   0 1043.78 133.745   7
  10   2   0 1260.74 149.678   1
 -10   2   0 1160.77 123.012   6
  10  -2   1 361.860 85.0770   2
 -10  -2   1 396.628 88.0566  10
  10   2   1 579.098 105.452   5
 -10  -2   1 314.202 83.6298   5
  10   2   1 510.176 103.351   1
  10   2   1 359.888 75.1240   9
  10   2   1 353.551 85.3334  10
 -10  -2   1 309.748 73.3168   8
  10   2   1 414.939 78.0908   4
 -10   2   1 336.051 86.9630  10
  10   2   1 256.337 61.0354   7
 -10   2   1 305.773 68.1622   6
  10   2   2 601.110 107.303  10
 -10  -2   2 744.327 125.817  10
 -10   2   2 603.213 112.042  10
 -10  -2   2 710.641 122.747   5
 -10  -2   2 534.078 74.6982   2
  10   2   2 572.993 95.0790   9
  10   2   2 584.956 103.545   1
 -10  -2   2 518.485 91.1282   8
  10   2   2 592.835 84.7723   8
  10   2   2 573.351 93.5089   4
  10  -2   2 709.064 92.8562   6
 -10   2   2 580.524 90.8252   6
  10  -2   2 543.687 91.6945   2
  10  -2   3 1798.20 92.9879   5
 -10   2   3 1914.91 86.1570   5
 -10  -2   3 1649.20 182.506  10
 -10   2   3 1968.09 196.686  10
  10   2   3 1941.36 185.770  10
  10   2   3 1754.38 165.030   9
  10   2   3 1720.61 155.593   4
  10  -2   3 1800.15 166.089   2
 -10  -2   3 1779.18 167.627   8
  10   2   3 1717.08 140.135   8
 -10  -2   3 1898.52 149.800   2
  10  -2   3 1833.04 147.327   6
 -10   2   3 1925.48 170.290   6
 -10   2   3 1725.00 88.8370   5
 -10  -2   3 1692.29 185.030   5
  10  -2   3 1765.21 98.8340   3
  10  -2   4 1076.36 86.4386   5
 -10   2   4 1138.79 82.6845   5
 -10  -2   4 815.325 132.954  10
 -10  -2   4 932.984 136.938   5
  10   2   4 1108.32 136.649   9
  10   2   4 1085.47 124.742   4
 -10  -2   4 858.575 127.501   8
  10   2   4 939.419 100.547   8
 -10  -2   4 1049.55 87.2668   7
 -10   2   4 813.676 142.704  10
  10  -2   4 985.441 105.025   6
 -10   2   4 1019.18 127.268   6
  10  -2   4 982.248 125.734   2
  10  -2   4 1197.74 91.7299   3
 -10   2   4 1113.39 72.2478   3
 -10  -2   5 957.242 157.845  10
 -10   2   5 1002.83 156.868  10
 -10  -2   5 1113.65 151.567   5
  10  -2   5 1102.43 100.476   5
  10   2   5 1010.72 127.166   9
 -10  -2   5 944.265 135.940   8
  10   2   5 787.233 91.2418   8
 -10  -2   5 1056.49 79.7360   7
  10   2   5 977.660 115.010   4
  10  -2   5 934.934 95.8467   6
 -10   2   5 957.315 127.487   6
  10  -2   5 894.289 124.770   2
  10  -2   5 1059.19 98.3435   3
 -10   2   5 998.915 86.2849   3
 -10  -2   6 156.535 115.367  10
 -10   2   6 148.767 86.4155  10
 -10  -2   6-5.74574 54.7358   5
  10  -2   6 147.377 51.5385   3
 -10   2   6 56.0937 32.0079   3
  10  -2   6 68.0186 39.6590   5
 -10   2   6 75.8790 38.8855   5
  10  -2   6 75.3901 46.4062   9
  10   2   6 98.0264 64.3241   9
 -10  -2   6 121.271 56.7870   8
  10   2   6 124.292 40.8015   8
  10   2   6 109.553 41.0523   4
 -10  -2   6 80.1480 27.7221   7
 -10   2   6 21.5862 46.6290   6
  10  -2   6 96.3083 45.8681   2
 -10  -2   7 204.734 110.480  10
 -10   2   7 237.862 113.577  10
 -10  -2   7 91.8018 70.1911   5
  10  -2   7 206.398 58.9046   3
 -10   2   7 172.200 48.5842   3
  10  -2   7 114.241 39.6780   9
  10   2   7 124.456 59.8812   9
 -10  -2   7 136.733 68.5179   8
  10   2   7 137.593 61.0389   4
  10   2   7 299.407 86.7483   3
 -10   2   7 117.507 69.2769   6
  10   2   8 92.1134 64.6257   3
 -10  -2   8 5.46570 52.9718   5
  10  -2   8 77.3632 47.4861   3
 -10   2   8 75.9331 40.4222   3
  10   2   8 21.1577 58.2477   9
 -10  -2   8 31.7231 59.4331   8
  10   2   8 78.6227 52.8312   4
 -10   2   8-7.06554 41.5722   6
  10   2   9 462.725 108.988   3
 -10   2   9 673.193 172.323  10
  10  -2   9 346.717 80.9392   3
 -10   2   9 437.949 90.2071   3
  10   2   9 143.183 61.4328   9
 -10  -2   9 158.687 77.5451   8
 -10  -2   9 268.606 106.173   5
 -10   2   9 172.369 67.6110   6
 -10  -2  10 609.018 133.408   5
  10  -2  10 914.300 135.863   3
 -10  -2  10 739.379 140.290   8
 -10  -2  11 148.889 88.9212   8
 -10  -3 -10 253.271 104.786   1
 -10   3  -9 587.574 141.299   1
  10   3  -9 420.900 98.8869   4
 -10  -3  -9 381.657 109.231   1
  10  -3  -8 458.522 116.064   2
 -10   3  -8 334.543 107.807   1
 -10  -3  -8 176.233 76.1844   1
  10   3  -8 418.220 105.413   4
 -10  -3  -7 559.000 125.205   5
  10  -3  -7 416.275 104.942   2
  10   3  -7 373.772 75.6041   9
 -10  -3  -7 468.971 106.947   1
 -10   3  -7 446.127 106.257   1
  10   3  -7 517.560 105.454   4
 -10   3  -7 365.486 93.8589   7
 -10  -3  -6 4145.27 308.347   5
  10   3  -6 4248.14 262.351   9
  10   3  -6 3606.75 266.487   4
 -10   3  -6 4285.68 323.234   1
 -10   3  -6 4173.66 285.596   7
  10  -3  -6 4048.24 303.152   2
 -10   3  -6 4183.01 227.922   6
 -10  -3  -5 1565.29 179.374   5
 -10   3  -5 1578.71 185.429   1
  10   3  -5 1288.15 141.760   9
  10  -3  -5 1278.51 164.300   2
  10   3  -5 1341.19 156.999   4
 -10   3  -5 1296.46 157.023   7
 -10   3  -5 1625.27 141.250   6
 -10  -3  -4 4113.41 293.594   5
  10   3  -4 3806.91 251.055   9
  10   3  -4 3906.58 268.595   4
  10  -3  -4 4266.38 292.597   2
 -10   3  -4 4320.57 281.082   7
 -10   3  -4 3897.14 237.324   6
  10  -3  -3 910.121 138.252   2
 -10  -3  -3 1019.68 144.234   5
  10   3  -3 972.918 124.843   9
  10   3  -3 1042.37 138.169   4
 -10   3  -3 852.202 126.328   7
 -10   3  -3 832.166 111.023   6
 -10  -3  -2 9490.69 467.572   5
 -10   3  -2 9878.83 469.964  10
  10   3  -2 9215.15 426.919   9
  10   3  -2 9654.97 446.564   4
 -10  -3  -2 9944.21 416.881   8
  10  -3  -2 9622.74 459.372   2
 -10   3  -2 9731.58 449.702   7
 -10   3  -2 9104.36 411.943   6
 -10  -3  -1 2984.35 249.167   5
 -10   3  -1 3166.20 247.019  10
 -10  -3  -1 3062.68 206.791  10
  10   3  -1 3296.03 235.149   9
  10   3  -1 3202.61 239.107   4
 -10  -3  -1 2992.77 215.852   8
  10  -3  -1 2903.85 238.043   2
 -10   3  -1 3112.78 239.082   7
 -10  -3  -1 3417.66 143.819   2
  10   3  -1 3508.14 197.456   7
 -10   3  -1 3484.57 233.297   6
 -10   3   0 8304.57 416.088  10
 -10  -3   0 8162.84 363.256  10
  10   3   0 7832.26 391.689   9
  10   3   0 7956.95 396.778   4
 -10  -3   0 7392.36 369.813   8
  10  -3   0 8044.73 410.601   2
  10   3   0 8549.69 393.415   1
  10   3   0 8192.73 347.562   7
 -10  -3   0 8099.97 293.196   2
 -10   3   0 7825.99 381.744   6
 -10  -3   0 7539.28 417.640   5
  10   3   1 2650.48 190.525  10
 -10   3   1 3075.90 241.552  10
 -10  -3   1 2873.11 205.513  10
  10   3   1 3111.33 232.333   9
  10   3   1 2881.03 215.212   1
  10   3   1 3302.78 238.358   4
 -10  -3   1 2759.45 215.949   8
  10  -3   1 2870.23 237.297   2
 -10   3   1 3171.48 231.702   6
 -10  -3   1 2792.39 248.858   5
  10   3   2 10419.0 420.873  10
 -10  -3   2 9729.13 436.227  10
 -10   3   2 9592.24 471.916  10
  10   3   2 10703.8 457.364   1
  10   3   2 9875.50 456.907   9
  10  -3   2 9520.26 468.948   2
  10   3   2 9519.67 446.167   4
 -10  -3   2 9536.45 449.879   8
 -10  -3   2 9910.03 389.333   2
 -10   3   2 10438.9 461.592   6
 -10  -3   2 10934.9 526.529   5
  10  -3   3 1088.97 56.6136   5
  10   3   3 1293.48 140.050  10
 -10  -3   3 1412.15 154.437  10
 -10   3   3 1408.70 171.484  10
 -10  -3   3 984.730 160.921   5
  10   3   3 1557.71 169.053   9
  10   3   3 1191.01 143.237   4
 -10  -3   3 1163.33 149.342   8
 -10   3   3 1345.19 155.635   6
  10  -3   3 1070.77 144.625   2
 -10  -3   4 4152.72 281.644  10
 -10   3   4 3704.36 286.847  10
  10   3   4 4015.23 280.758   9
  10  -3   4 3610.92 280.680   2
 -10  -3   4 3876.92 278.371   8
  10   3   4 3944.26 264.625   4
  10  -3   4 4047.11 237.232   4
 -10   3   4 4062.27 277.847   6
 -10   3   4 4192.89 156.143   3
  10  -3   4 4080.42 174.138   5
 -10  -3   4 3980.17 313.170   5
  10  -3   5 1623.28 128.996   3
 -10   3   5 1771.18 201.635  10
 -10  -3   5 1654.10 189.301  10
  10   3   5 1509.75 172.651   9
 -10  -3   5 1323.85 184.839   5
 -10  -3   5 1395.49 173.501   8
  10   3   5 1240.53 150.680   4
 -10   3   5 1734.68 184.321   6
 -10   3   5 1690.44 108.450   3
  10  -3   5 1593.37 116.226   5
  10  -3   5 1255.66 174.049   2
 -10  -3   6 4259.83 316.762  10
 -10   3   6 4047.68 313.086  10
  10   3   6 3789.97 285.635   9
  10  -3   6 4377.47 323.363   2
 -10  -3   6 4174.38 305.612   8
  10   3   6 3971.99 278.572   4
 -10   3   6 4139.78 292.436   6
 -10  -3   6 4118.74 324.287   5
  10  -3   6 4585.74 243.825   3
 -10  -3   7 573.810 132.067  10
 -10   3   7 572.742 133.866  10
 -10  -3   7 562.161 127.360   5
  10  -3   7 621.904 96.8340   3
  10  -3   7 966.663 152.235   2
  10   3   7 385.660 100.629   9
 -10  -3   7 508.934 119.017   8
  10   3   7 435.093 97.1123   4
 -10   3   7 465.852 103.266   6
 -10   3   8 336.823 112.768  10
 -10  -3   8 671.761 165.297  10
  10  -3   8 500.864 96.8886   3
 -10  -3   8 377.568 120.967   5
  10   3   8 455.372 109.650   9
 -10  -3   8 398.471 113.678   8
  10   3   8 408.635 100.427   4
  10   3   8 466.520 112.620   3
 -10   3   8 392.223 94.8872   6
 -10  -3   9 438.328 145.100  10
 -10   3   9 565.600 142.652  10
  10  -3   9 543.233 106.286   3
  10   3   9 380.314 111.384   9
 -10  -3   9 379.160 109.002   8
 -10   3   9 600.532 123.878   6
 -10   3  10 530.700 124.062   6
  10   4  -8 674.201 130.191   4
 -10   4  -8 716.833 131.171   7
 -10   4  -8 738.697 146.550   1
 -10  -4  -7 2092.77 246.489   5
  10   4  -7 2017.77 216.010   4
 -10   4  -7 2404.39 228.614   7
 -10   4  -7 2238.60 234.165   1
  10  -4  -7 2251.48 252.931   2
  10  -4  -6 918.989 156.805   2
 -10  -4  -6 1037.14 176.074   5
  10   4  -6 1087.07 141.087   9
 -10   4  -6 1099.86 164.145   1
  10   4  -6 986.557 149.751   4
 -10   4  -6 1028.11 146.689   7
 -10   4  -6 1186.22 135.777   6
 -10  -4  -5 4045.21 330.106   5
  10   4  -5 4627.64 296.336   9
  10   4  -5 4231.74 306.570   4
  10  -4  -5 3904.77 317.002   2
 -10   4  -5 4112.17 304.321   7
 -10   4  -5 4461.37 279.187   6
 -10  -4  -4 2167.40 237.711   5
  10   4  -4 2203.67 204.332   9
  10   4  -4 2591.45 232.796   4
  10  -4  -4 2531.91 246.609   2
 -10   4  -4 2608.45 231.112   7
 -10   4  -4 2329.00 203.873   6
 -10  -4  -3 6742.64 431.791   5
  10   4  -3 7371.56 394.709   9
 -10  -4  -3 7522.58 370.422   8
  10   4  -3 7509.51 418.950   4
  10  -4  -3 8233.44 458.947   2
 -10   4  -3 7279.24 409.135   7
 -10   4  -3 7231.51 383.534   6
 -10  -4  -2 4261.10 332.545   5
  10   4  -2 4530.21 304.375   9
 -10  -4  -2 4986.77 298.611   8
  10   4  -2 5077.18 331.505   4
  10  -4  -2 5653.71 369.821   2
 -10   4  -2 4819.86 326.740   7
 -10   4  -2 5101.17 319.868   6
 -10  -4  -1 6191.20 399.027   5
 -10   4  -1 5684.37 338.955  10
  10   4  -1 6400.20 367.644   9
 -10  -4  -1 6020.55 341.741   8
  10   4  -1 5866.13 364.032   4
  10  -4  -1 5844.35 380.282   2
 -10   4  -1 6195.33 360.268   6
 -10   4   0 3132.37 241.104  10
 -10  -4   0 2868.53 182.084  10
  10   4   0 2984.01 248.003   9
 -10  -4   0 3173.20 246.595   8
  10   4   0 2775.68 245.323   4
  10  -4   0 2406.08 243.700   2
 -10   4   0 2858.12 240.831   6
 -10  -4   0 3248.68 281.376   5
 -10   4   1 5506.47 333.672  10
 -10  -4   1 6031.39 284.550  10
  10   4   1 5867.44 362.295   9
 -10  -4   1 5996.22 355.643   8
  10  -4   1 5052.28 358.251   2
  10   4   1 6080.00 369.017   4
 -10   4   1 6106.18 367.475   6
 -10  -4   1 6146.74 397.230   5
 -10   4   2 4648.18 308.859  10
 -10  -4   2 5302.55 272.851  10
  10   4   2 4949.21 337.020   9
  10  -4   2 4472.75 336.077   2
 -10  -4   2 5120.86 336.176   8
  10   4   2 5258.86 342.365   4
 -10   4   2 5167.60 342.056   6
 -10  -4   2 5005.74 363.521   5
 -10  -4   3 8115.11 377.762  10
 -10   4   3 7196.92 411.871  10
  10   4   3 8577.06 461.775   9
  10  -4   3 8183.14 467.798   2
 -10  -4   3 8426.51 456.460   8
  10   4   3 8285.69 446.861   4
 -10   4   3 8650.88 457.230   6
 -10  -4   3 9022.74 515.978   5
 -10  -4   4 3204.32 232.915  10
 -10   4   4 2653.43 242.490  10
  10   4   4 2740.40 256.380   9
  10  -4   4 2964.79 275.179   2
 -10  -4   4 2964.59 268.687   8
  10   4   4 3109.35 261.839   4
 -10   4   4 3058.78 264.878   6
 -10  -4   4 2523.94 274.649   5
 -10  -4   5 4948.94 303.798  10
 -10   4   5 3899.97 303.511  10
  10   4   5 4763.61 343.653   9
  10  -4   5 4205.51 335.913   2
 -10  -4   5 4144.33 325.456   8
  10   4   5 4365.79 320.570   4
 -10   4   5 4543.02 330.599   6
 -10  -4   5 4400.66 362.666   5
 -10  -4   6 998.761 152.277  10
 -10   4   6 1026.66 166.362  10
 -10  -4   6 1098.06 187.339   5
  10   4   6 1405.85 190.737   9
 -10  -4   6 1404.63 196.423   8
  10   4   6 870.387 149.843   4
 -10   4   6 1074.87 158.354   6
  10  -4   6 1146.94 175.834   2
 -10  -4   7 1868.22 246.445   5
 -10   4   7 1831.38 222.156  10
  10   4   7 1712.59 215.725   9
 -10  -4   7 1667.41 225.805   8
 -10  -4   7 1875.96 212.752  10
  10   4   7 1943.34 212.279   4
 -10   4   7 2154.84 232.678   6
  10  -4   7 1812.26 230.030   2
 -10  -4   8 814.559 164.293  10
 -10   4   8 665.804 150.233  10
  10   4   8 777.130 160.771   9
  10   4   8 977.967 156.747   4
 -10   5  -6 54.5934 50.1910   7
  10   5  -5 2071.36 217.499   9
  10   5  -5 1994.80 231.897   4
 -10   5  -5 1837.17 212.321   7
 -10   5  -5 1779.47 199.589   6
  10  -5  -4 761.528 162.185   2
 -10  -5  -4 812.980 163.180   5
  10   5  -4 922.730 142.728   9
 -10   5  -4 725.884 133.125   7
  10   5  -4 958.802 159.861   4
 -10   5  -4 647.417 120.842   6
 -10  -5  -3 2797.61 286.659   5
  10   5  -3 2744.84 252.695   9
 -10  -5  -3 2767.17 229.269   8
  10   5  -3 3006.44 275.501   4
  10  -5  -3 2919.67 294.313   2
 -10   5  -3 2155.85 232.452   7
 -10   5  -3 2413.36 242.333   6
 -10  -5  -2 289.662 104.146   5
  10   5  -2 298.164 104.275   9
 -10  -5  -2 317.310 91.9913   8
  10  -5  -2 204.004 92.2318   2
 -10   5  -2 230.331 87.3588   7
  10   5  -2 360.510 116.328   4
 -10   5  -2 218.236 99.0830   6
 -10  -5  -1 2654.06 275.390   5
  10   5  -1 2362.88 240.297   9
 -10  -5  -1 2271.46 225.265   8
  10   5  -1 2423.57 256.021   4
  10  -5  -1 2338.33 259.509   2
 -10   5  -1 2355.18 244.929   6
  10  -5   0 1791.69 225.135   2
 -10   5   0 1996.48 191.161  10
  10   5   0 2303.24 242.038   9
 -10  -5   0 2040.81 218.027   8
  10   5   0 2580.50 256.188   4
 -10   5   0 2278.81 241.163   6
 -10  -5   0 2347.37 254.523   5
 -10   5   1 2067.98 193.629  10
  10   5   1 2233.72 243.589   9
  10  -5   1 2248.83 252.803   2
 -10  -5   1 1777.39 215.386   8
  10   5   1 1984.45 232.210   4
 -10   5   1 2158.77 237.418   6
 -10  -5   1 2093.54 244.789   5
 -10   5   2 389.210 88.0682  10
 -10  -5   2 271.823 107.961   5
  10   5   2 231.444 98.0113   9
 -10  -5   2 320.883 110.095   8
  10   5   2 252.708 99.7856   4
 -10   5   2 378.450 110.415   6
  10  -5   2 203.515 81.2130   2
 -10   5   3 2965.14 244.024  10
  10   5   3 3019.14 291.139   9
  10  -5   3 2972.88 291.488   2
 -10  -5   3 3089.83 286.863   8
  10   5   3 2914.36 284.276   4
 -10   5   3 2925.62 282.777   6
 -10  -5   3 2786.15 293.575   5
 -10   5   4 753.771 122.689  10
 -10  -5   4 721.922 166.312   5
  10   5   4 921.012 160.147   9
 -10  -5   4 821.012 157.606   8
  10   5   4 729.077 147.735   4
 -10   5   4 743.178 154.747   6
  10  -5   4 704.606 141.540   2
  10   5   5 2074.01 240.842   4
  10   5   6 163.157 90.7762   4
 -10   6  -3 170.100 80.9785   7
 -10   6  -2 3.53370 58.4304   7
 -10  -6  -1 1159.90 175.445   8
 -10  -6   0 145.410 98.1569   8
  11   0 -10 22.4938 51.8995   4
 -11   0  -9-69.3478 81.6247   1
  11   0  -9-36.7640 56.0876   2
  11   0  -9-61.8380 55.5959   4
 -11   0  -8-43.4677 79.8902   1
  11   0  -8 90.6512 71.7362   2
  11   0  -8-20.6850 54.5080   4
  11   0  -7 13.3450 45.7127   4
  11   0  -7 43.4540 61.2701   2
 -11   0  -7-64.3590 69.7101   1
 -11   0  -6-57.7405 66.3387   1
  11   0  -6-31.4824 35.1087   3
  11   0  -6 17.1406 45.3904   2
  11   0  -5 31.9667 32.9190   3
 -11   0  -5 55.1213 72.2740   1
  11   0  -5-1.04268 58.6372   2
  11   0  -4 47.0953 31.6862   3
  11   0  -4 101.351 59.8068   2
 -11   0  -4 54.2633 50.7010   7
 -11   0  -3 54.9071 70.5755  10
  11   0  -3-2.37445 22.6402   3
 -11   0  -3 41.3747 30.5236   5
  11   0  -3 20.9064 52.1684   2
 -11   0  -3 41.3348 51.6770   7
 -11   0  -2 22.2337 45.7320  10
  11   0  -2 22.1232 20.0203   3
 -11   0  -2 20.8284 28.1351   5
  11   0  -2 13.7630 35.1199   2
 -11   0  -2-4.29767 41.9945   7
 -11   0  -1 10.8820 21.3176   5
  11   0  -1 31.6210 23.3338   3
  11   0  -1 26.8915 41.0167   2
 -11   0  -1 21.0824 43.7373   7
 -11   0  -1-0.64924 54.1972  10
 -11   0   0 22.0142 50.3320  10
 -11   0   0 37.3865 24.6853   5
  11   0   0 30.8118 33.1458   2
  11   0   0 10.9496 24.7954   3
  11   0   0 41.9031 45.5918   4
 -11   0   0 14.7794 38.6503   7
 -11   0   1 0.66476 61.7633  10
  11   0   1 33.9161 34.4732   5
 -11   0   1 46.2798 30.6136   5
  11   0   1 84.6744 34.8921   2
  11   0   1 12.1992 40.9593   4
 -11   0   1 73.4807 57.8016   7
  11   0   1-11.5274 28.6566   6
 -11   0   1 4.05113 28.1435   2
 -11   0   2 12.4660 37.1124   2
 -11   0   2 37.5188 72.7118  10
  11   0   2 6.45824 35.5869   5
  11   0   2 17.5321 27.9080   2
 -11   0   2-13.1593 28.1018   5
  11   0   2 27.4714 51.4181   9
  11   0   2-21.3908 34.0884   4
 -11   0   2 29.4261 53.6250   7
  11   0   2 90.6925 48.7173   6
  11   0   3 4.83523 28.2479   3
  11   0   3 16.9956 34.9381   2
 -11   0   3 114.406 92.8056  10
 -11   0   3 22.2215 37.5160   5
  11   0   3 119.503 48.1981   5
  11   0   3 44.9600 45.7279   9
  11   0   3 24.4312 43.0625   4
 -11   0   3-15.5107 38.0951   7
  11   0   3 100.716 47.2409   6
  11   0   4 31.0001 27.5736   2
  11   0   4 55.9745 34.7849   3
 -11   0   4-10.5706 44.8531   5
  11   0   4-52.9370 52.7616   5
  11   0   4 2.55017 34.0373   9
 -11   0   4 118.053 75.9767  10
  11   0   4 53.5299 38.3993   4
 -11   0   4 39.3246 43.7598   7
  11   0   4-43.8427 39.6814   6
  11   0   5 9.06179 23.2166   2
  11   0   5-0.35238 30.8498   3
 -11   0   5 43.3236 80.2609  10
 -11   0   5 16.3091 38.6956   5
  11   0   5 18.7238 28.8165   5
  11   0   5 7.40843 32.9981   9
 -11   0   5 19.1444 46.9311   7
  11   0   5 9.81869 25.2766   4
  11   0   5 38.1158 35.5336   6
  11   0   6 35.8004 42.4946   3
 -11   0   6 4.94515 74.4127  10
 -11   0   6 64.5947 56.0369   5
  11   0   6 9.64794 32.1223   9
  11   0   6 5.36409 21.9389   4
  11   0   6 38.8765 34.7646   6
  11   0   6 6.77056 22.5622   2
 -11   0   7 134.344 102.263  10
 -11   0   7 81.4336 58.4420   3
  11   0   7 71.3562 48.1325   9
  11   0   7 39.9983 32.4570   4
  11   0   7 56.6419 55.4311   3
  11   0   7 10.7423 26.7569   2
 -11   0   8 189.888 125.502  10
  11   0   8 72.5430 64.4241   3
 -11   0   8-28.8241 40.0790   3
  11   0   8 70.0508 54.8362   9
 -11   0   9 159.579 130.507  10
  11   0   9-106.894 61.0639   3
 -11   0   9 162.982 72.9178   3
  11   0  10 12.9667 52.5097   3
 -11   0  10 54.7193 68.7003   3
 -11   0  11-7.03370 53.4092   3
  11   1 -10 3905.25 289.490   4
 -11   1  -9-46.8309 76.0197   1
  11   1  -9 52.8426 39.0920   9
 -11  -1  -9 76.5788 109.423   1
  11  -1  -9-14.9909 50.8918   2
  11   1  -9-37.3164 48.5859   4
  11   1  -8 5040.65 296.977   9
  11   1  -8 5287.33 331.428   4
 -11   1  -8 5659.38 423.144   1
 -11  -1  -8 5430.90 404.525   1
  11  -1  -8 5614.77 364.051   2
  11   1  -7 208.169 60.7199   9
  11  -1  -7 90.8423 68.2327   2
 -11   1  -7 71.0816 80.4133   1
  11   1  -7 149.054 68.3676   4
 -11  -1  -7 219.913 79.5013   1
  11   1  -6 3457.21 239.084   9
  11   1  -6 3860.65 266.484   4
 -11   1  -6 4100.77 330.838   1
 -11   1  -6 3884.05 269.710   7
 -11  -1  -6 4443.28 325.880   1
  11  -1  -6 3645.95 267.283   2
 -11  -1  -5 1473.68 143.670   5
  11   1  -5 1383.71 143.452   9
  11   1  -5 1274.10 147.373   4
 -11  -1  -5 1295.18 167.712   1
 -11   1  -5 1172.64 144.528   7
  11  -1  -5 1307.63 153.661   2
 -11   1  -5 1386.00 182.457   1
  11   1  -5 1458.53 156.034   2
 -11  -1  -4 11480.6 448.614   5
  11   1  -4 11547.1 472.752   9
  11   1  -4 11240.5 483.160   4
 -11   1  -4 11134.0 476.044   7
  11  -1  -4 11476.1 482.850   2
  11   1  -4 11960.7 472.493   2
  11   1  -4 11945.9 423.325   3
 -11  -1  -3 1911.04 150.572   5
 -11  -1  -3 2064.90 207.876  10
 -11   1  -3 1782.84 200.889  10
  11   1  -3 1974.13 170.466   9
  11   1  -3 2054.76 178.995   4
 -11   1  -3 1782.29 167.377   7
  11  -1  -3 2166.53 177.868   2
  11   1  -3 1817.90 153.741   2
  11   1  -3 2035.94 143.575   3
 -11  -1  -2 8412.35 353.855   5
 -11   1  -2 8932.36 468.988  10
 -11  -1  -2 9519.51 460.247  10
  11   1  -2 8668.96 393.635   9
  11   1  -2 9104.84 405.051   4
 -11   1  -2 9500.44 408.170   7
  11  -1  -2 8729.44 381.770   2
 -11  -1  -2 8900.64 392.411   7
  11   1  -2 9262.17 362.821   2
  11   1  -2 9038.14 338.629   3
 -11  -1  -1 489.881 110.105  10
 -11   1  -1 457.650 108.475  10
  11  -1  -1 571.696 90.8610   2
 -11  -1  -1 351.897 62.3250   5
  11   1  -1 451.633 67.9354   3
  11   1  -1 320.370 75.2530   9
  11   1  -1 537.544 73.9042   2
  11   1  -1 485.063 85.9401   4
 -11   1  -1 430.154 84.1451   7
 -11  -1  -1 534.084 88.8210   7
 -11   1  -1 516.028 83.2913   6
 -11  -1  -1 467.122 59.7898   2
 -11   1   0 11103.1 526.499  10
 -11  -1   0 10997.9 512.582  10
  11   1   0 11268.7 461.869   9
  11   1   0 11906.7 464.940   4
 -11   1   0 12588.4 454.494   2
 -11  -1   0 11343.6 383.216   2
  11  -1   0 10532.0 419.932   2
 -11   1   0 10891.1 448.025   7
 -11  -1   0 10912.0 431.955   7
  11   1   0 10828.5 375.174   2
 -11   1   0 10958.9 437.550   6
  11   1   0 11890.6 439.729   5
 -11  -1   0 11899.8 437.482   5
  11  -1   1 349.294 68.4612   2
 -11  -1   1 458.030 98.4843  10
 -11   1   1 416.652 101.060  10
  11   1   1 376.031 77.7747   5
 -11  -1   1 316.887 67.9024   5
  11   1   1 397.151 81.6275   9
  11   1   1 421.548 54.6586   2
  11   1   1 394.499 80.2335   4
 -11   1   1 382.432 82.2129   7
 -11  -1   1 292.823 69.8044   7
 -11   1   1 241.722 65.4705   6
 -11   1   1 393.191 74.5433   2
 -11  -1   2 7569.99 422.297  10
 -11   1   2 8383.07 451.096  10
  11   1   2 7875.59 374.834   9
  11   1   2 8304.56 365.951   4
  11  -1   2 8197.18 336.319   2
 -11  -1   2 8067.98 337.803   2
 -11   1   2 7895.12 365.911   7
 -11  -1   2 7642.27 328.852   7
  11  -1   2 8843.42 354.601   6
  11   1   2 8067.09 260.535   2
 -11   1   2 7873.68 368.913   6
  11  -1   2 8103.70 244.276   3
  11  -1   2 8461.61 275.217   5
  11   1   2 7617.06 379.482   5
 -11  -1   2 7751.56 384.953   5
 -11   1   2 9207.45 272.944   5
 -11  -1   3 1937.51 211.755  10
 -11   1   3 2081.21 215.176  10
  11   1   3 2073.38 176.392   9
  11   1   3 1855.59 155.343   4
 -11  -1   3 1861.02 172.943   8
  11  -1   3 1981.80 148.193   2
 -11  -1   3 2111.78 149.520   7
  11  -1   3 2215.96 156.325   6
  11   1   3 2005.71 88.2773   2
  11   1   3 1951.72 152.936   6
 -11   1   3 2058.07 173.953   6
  11  -1   3 2073.71 113.075   3
 -11   1   3 2206.46 135.489   5
 -11  -1   3 2141.22 188.232   5
  11   1   3 2274.83 191.458   5
  11  -1   3 2109.28 132.670   5
 -11  -1   4 10060.9 527.435  10
 -11   1   4 11142.3 548.189  10
  11  -1   4 11172.5 445.775   9
  11   1   4 10740.4 459.093   9
  11  -1   4 11501.1 419.741   4
  11   1   4 11514.6 436.266   4
 -11  -1   4 10893.9 480.533   8
  11  -1   4 11104.0 420.433   2
 -11  -1   4 11934.7 417.254   7
  11  -1   4 11414.7 418.585   6
  11   1   4 11490.1 424.961   6
 -11   1   4 10915.2 467.233   6
  11  -1   4 11398.6 376.854   3
 -11   1   4 12057.9 407.080   5
 -11  -1   4 11277.5 486.207   5
  11   1   4 12410.8 491.922   5
  11  -1   4 11707.9 403.700   5
  11  -1   5 1301.04 119.147   5
 -11   1   5 1424.77 110.814   3
 -11   1   5 998.846 174.039  10
  11  -1   5 1439.87 137.735   9
  11  -1   5 1220.62 111.564   4
  11   1   5 1058.46 127.895   9
  11   1   5 1210.67 119.036   4
  11  -1   5 1392.97 127.968   2
 -11  -1   5 1196.29 143.661   8
 -11  -1   5 1357.74 115.790   7
 -11  -1   5 1375.05 192.654  10
  11  -1   5 1296.07 111.068   6
  11   1   5 1200.38 113.951   6
  11  -1   5 1233.50 108.016   3
 -11   1   5 1251.09 143.396   6
 -11  -1   5 1473.58 159.619   5
 -11  -1   6 3579.06 320.089  10
 -11   1   6 4472.90 342.579  10
  11  -1   6 3899.51 231.554   5
  11  -1   6 4046.72 235.332   9
  11   1   6 3973.35 251.363   9
  11  -1   6 3968.30 195.676   4
  11  -1   6 4077.24 240.849   2
 -11  -1   6 4278.36 283.319   8
  11   1   6 4060.18 225.427   4
 -11  -1   6 4096.14 210.012   7
  11   1   6 3522.48 238.970   3
  11   1   6 3867.13 206.546   6
  11  -1   6 3796.75 218.181   3
 -11  -1   6 3763.20 265.376   5
 -11   1   6 4761.42 232.659   3
  11   1   7 229.203 78.2798   3
 -11  -1   7 464.301 150.943  10
 -11   1   7 177.275 101.321  10
 -11  -1   7 134.623 66.8302   5
  11  -1   7 128.130 54.9324   3
 -11   1   7 98.2555 42.0339   3
  11  -1   7 238.154 60.4957   9
  11   1   7 272.243 58.4099   9
 -11  -1   7 183.767 80.6077   8
 -11  -1   7 212.736 56.8308   7
  11   1   7 317.052 69.7547   4
  11  -1   7 232.152 66.8843   2
 -11  -1   8 4889.63 401.721  10
 -11   1   8 5127.97 404.265  10
  11  -1   8 5340.29 265.330   9
  11   1   8 4768.07 289.783   9
  11  -1   8 5377.31 303.225   2
 -11  -1   8 5225.85 333.291   8
  11   1   8 4463.56 299.752   3
  11  -1   8 4728.30 283.571   3
 -11  -1   8 4770.45 329.337   5
 -11   1   8 5273.41 286.735   3
 -11   1   9 237.088 134.482  10
  11   1   9 9.94891 64.9353   3
 -11  -1   9 129.274 76.3369   5
  11  -1   9 21.2160 59.2269   3
 -11   1   9-22.5449 49.4254   3
 -11  -1   9 35.3008 54.0568   3
  11   1   9-155.266 63.7247   9
 -11  -1   9 18.8569 50.4312   8
 -11  -1  10 4082.50 307.346   3
 -11  -1  10 3887.37 297.235   8
  11   1  10 3326.62 280.811   3
  11  -1  10 3547.09 275.086   3
 -11  -1  10 4384.79 331.597   5
  11   2 -10 5906.54 366.000   4
 -11   2  -9 267.894 108.657   1
  11  -2  -9 258.868 107.205   2
  11   2  -9 162.269 76.4945   4
 -11  -2  -9 253.184 106.456   1
  11   2  -8 5517.37 306.678   9
  11   2  -8 5059.04 331.004   4
 -11   2  -8 5377.36 408.099   1
 -11  -2  -8 5462.96 383.912   1
  11  -2  -8 5118.87 355.838   2
  11   2  -7 1331.77 144.373   9
  11  -2  -7 1288.01 171.533   2
 -11  -2  -7 1466.74 189.387   1
  11   2  -7 1429.62 167.654   4
 -11   2  -7 1567.20 174.827   7
 -11   2  -7 1362.39 197.012   1
 -11  -2  -6 11092.2 499.723   5
  11   2  -6 10805.1 464.447   9
  11   2  -6 10830.8 493.859   4
 -11   2  -6 10687.4 495.613   7
 -11   2  -6 12012.3 589.833   1
  11  -2  -6 10936.6 514.147   2
 -11  -2  -6 11788.9 547.698   1
  11  -2  -5 889.004 132.308   2
 -11  -2  -5 670.055 109.702   5
  11   2  -5 694.548 106.849   9
 -11   2  -5 915.224 155.198   1
  11   2  -5 588.139 106.578   4
 -11   2  -5 812.651 122.888   7
 -11   2  -5 928.683 101.892   6
 -11  -2  -4 7737.14 383.928   5
  11   2  -4 7138.85 359.787   9
  11   2  -4 7731.26 387.143   4
 -11   2  -4 7416.86 382.082   7
  11  -2  -4 7498.89 389.174   2
 -11   2  -4 7987.82 336.622   6
 -11   2  -3 465.209 105.517  10
  11  -2  -3 355.160 81.7345   2
 -11  -2  -3 442.280 91.0325   5
  11   2  -3 245.462 64.9961   9
  11   2  -3 499.165 91.6855   4
 -11   2  -3 397.921 89.3879   7
 -11   2  -3 498.133 81.1090   6
 -11  -2  -2 2063.28 180.857   5
 -11   2  -2 2602.36 235.141  10
 -11  -2  -2 2405.24 203.159  10
  11   2  -2 2248.73 186.370   9
  11   2  -2 2497.11 203.738   4
  11  -2  -2 2326.55 191.496   2
 -11   2  -2 2388.71 195.569   7
 -11   2  -2 2016.66 166.850   6
  11  -2  -1 493.820 92.6699   2
 -11   2  -1 327.324 83.4132  10
 -11  -2  -1 292.150 73.0648  10
 -11  -2  -1 425.293 84.9905   5
  11   2  -1 600.727 101.076   3
  11   2  -1 514.606 91.9610   9
  11   2  -1 567.315 98.3045   4
 -11   2  -1 486.201 96.2378   7
 -11   2  -1 554.169 90.4695   6
 -11  -2  -1 405.563 47.8619   2
 -11   2   0 10737.4 505.911  10
 -11  -2   0 10570.3 471.459  10
  11   2   0 10526.2 452.948   9
  11   2   0 10350.0 448.091   4
 -11  -2   0 10821.8 450.459   8
  11  -2   0 10212.3 440.208   2
 -11  -2   0 10610.0 352.426   2
 -11   2   0 9755.82 446.891   7
  11   2   0 10367.6 408.573   7
 -11   2   0 9740.66 425.158   6
 -11  -2   0 10073.7 455.908   5
  11  -2   1 669.125 106.661   2
 -11  -2   1 406.545 89.9828  10
 -11   2   1 649.637 116.062  10
 -11  -2   1 867.925 129.921   5
  11   2   1 702.256 110.137   9
 -11  -2   1 537.656 91.5490   8
  11   2   1 636.754 103.066   4
 -11   2   1 426.054 85.5786   6
 -11  -2   2 2670.21 227.759  10
 -11   2   2 2750.74 241.908  10
  11   2   2 2778.12 213.589   9
  11   2   2 2755.43 201.399   4
 -11  -2   2 2450.01 199.378   8
  11  -2   2 2491.43 197.865   2
 -11  -2   2 2720.47 174.370   2
 -11   2   2 2469.83 198.108   6
 -11  -2   2 2750.69 236.739   5
 -11   2   3 286.079 25.4849   5
 -11  -2   3 367.329 103.537  10
 -11   2   3 94.7787 59.3419  10
 -11  -2   3 177.676 74.1622   5
  11  -2   3 294.523 33.3217   5
  11  -2   3 339.642 41.8722   3
  11   2   3 301.701 79.1879   9
 -11  -2   3 291.988 80.6913   8
  11   2   3 329.271 79.4700   4
 -11  -2   3 362.581 59.6618   7
 -11   2   3 253.685 71.9975   6
 -11   2   3 338.740 31.6308   5
  11  -2   3 229.025 60.9125   2
  11  -2   4 7486.29 267.773   5
 -11  -2   4 6976.82 413.754  10
 -11   2   4 7124.57 420.591  10
 -11   2   4 7703.84 253.037   5
  11   2   4 6874.06 366.802   9
  11  -2   4 7487.14 372.382   2
  11   2   4 7506.88 354.054   4
 -11  -2   4 7446.72 386.093   8
 -11  -2   4 7323.41 284.451   7
  11  -2   4 7135.21 325.006   6
 -11   2   4 7387.57 374.881   6
 -11   2   4 7323.93 262.983   5
 -11  -2   4 6717.04 397.781   5
  11  -2   4 7279.90 268.000   3
 -11  -2   5 744.791 135.948  10
 -11   2   5 512.895 114.248  10
 -11  -2   5 518.454 108.302   5
  11   2   5 655.947 107.058   9
 -11  -2   5 660.458 117.653   8
 -11  -2   5 700.775 74.0785   7
  11   2   5 729.789 106.129   4
  11  -2   5 843.715 95.6252   6
 -11   2   5 856.742 126.141   6
  11  -2   5 816.588 118.758   2
  11  -2   5 880.265 89.1518   3
 -11   2   5 807.022 73.8254   3
 -11  -2   6 11443.0 593.878  10
 -11   2   6 11403.6 583.143  10
  11  -2   6 11961.8 455.980   9
  11   2   6 11629.2 511.196   9
  11  -2   6 12055.9 412.123   4
  11  -2   6 11615.6 524.280   2
 -11  -2   6 12217.4 540.646   8
  11   2   6 11884.2 482.338   4
 -11  -2   6 12137.5 371.831   7
 -11   2   6 12081.9 523.518   6
 -11  -2   6 11879.0 559.597   5
  11  -2   6 11963.2 433.941   3
 -11   2   6 12336.9 410.964   3
 -11  -2   7 1451.96 218.556  10
 -11   2   7 1479.09 205.828  10
 -11  -2   7 1636.02 197.502   5
  11  -2   7 1605.78 139.391   9
  11  -2   7 1515.95 183.034   2
  11   2   7 1438.95 164.849   9
  11   2   7 1647.83 162.895   4
 -11  -2   7 1478.42 179.843   8
  11   2   7 1593.39 173.265   3
 -11   2   7 1749.97 180.122   6
  11  -2   7 1602.80 146.721   3
 -11   2   7 1609.96 132.814   3
 -11  -2   8 5720.26 436.281  10
 -11   2   8 5684.28 419.255  10
  11   2   8 5773.41 348.060   9
  11  -2   8 4764.54 334.718   2
 -11  -2   8 5999.85 372.855   8
  11   2   8 5452.01 345.012   3
 -11   2   8 5334.15 338.207   6
 -11  -2   8 5250.07 367.733   5
  11  -2   8 5878.21 311.664   3
  11   2   9 296.044 95.1552   3
 -11  -2   9 538.249 152.624  10
 -11   2   9 346.105 127.840  10
 -11  -2   9 436.315 118.810   5
  11  -2   9 332.070 71.3083   3
  11  -2   9 240.615 76.5296   2
  11   2   9 556.288 116.867   9
 -11  -2   9 368.879 107.157   8
 -11   2   9 355.733 97.6585   6
 -11  -2  10 5551.43 372.896   8
  11  -2  10 5184.76 330.609   3
  11   3  -9 462.168 109.734   4
 -11  -3  -9 377.146 118.061   1
  11  -3  -8 1253.14 182.472   2
  11   3  -8 1421.79 177.849   4
 -11   3  -8 1839.98 200.898   7
 -11  -3  -8 1367.24 182.884   1
 -11   3  -8 1833.98 225.338   1
 -11   3  -7 865.597 160.404   1
 -11  -3  -7 753.806 139.189   5
  11  -3  -7 885.711 149.086   2
  11   3  -7 761.595 114.667   9
  11   3  -7 819.589 134.536   4
 -11   3  -7 954.642 146.497   7
 -11  -3  -6 3841.48 299.427   5
  11   3  -6 3734.51 254.885   9
  11   3  -6 3871.40 281.457   4
 -11   3  -6 3532.01 275.661   7
  11  -3  -6 3414.73 285.745   2
 -11   3  -6 4198.14 325.551   1
 -11   3  -6 3901.30 225.142   6
  11  -3  -5 248.531 90.4350   2
 -11  -3  -5 108.122 63.8323   5
  11   3  -5 95.3869 62.1502   9
  11   3  -5 130.545 67.6007   4
 -11   3  -5 167.265 72.9474   7
 -11   3  -5 233.307 61.8613   6
 -11  -3  -4 6456.46 383.280   5
  11   3  -4 6448.95 348.537   9
  11   3  -4 6616.88 371.555   4
  11  -3  -4 6311.04 378.826   2
 -11   3  -4 6842.42 378.545   7
 -11   3  -4 6593.85 328.019   6
 -11  -3  -3 2745.42 241.120   5
  11   3  -3 2903.79 225.736   9
  11   3  -3 2809.58 229.920   4
  11  -3  -3 2976.26 246.467   2
 -11   3  -3 2583.37 225.195   7
 -11   3  -3 2743.54 207.020   6
 -11  -3  -2 7651.94 417.535   5
 -11   3  -2 7466.02 418.794  10
  11   3  -2 7668.56 389.415   9
  11   3  -2 7734.24 398.778   4
 -11  -3  -2 7246.95 361.906   8
  11  -3  -2 7907.69 419.834   2
 -11   3  -2 7523.37 401.124   7
 -11   3  -2 7827.27 375.363   6
 -11   3  -1 703.509 128.537  10
 -11  -3  -1 544.123 91.1729  10
  11  -3  -1 518.718 111.252   2
 -11  -3  -1 422.708 94.2719   5
  11   3  -1 572.583 104.121   9
 -11  -3  -1 442.413 93.8203   8
 -11  -3  -1 555.949 53.9640   2
  11   3  -1 654.477 113.662   4
 -11   3  -1 796.329 132.528   7
  11   3  -1 580.851 83.3206   7
 -11   3  -1 939.445 125.868   6
 -11   3   0 12779.6 560.244  10
 -11  -3   0 12767.6 505.233  10
  11   3   0 12153.2 526.617   9
  11   3   0 11941.7 525.267   4
 -11  -3   0 12010.9 513.147   8
  11  -3   0 12092.2 538.405   2
 -11  -3   0 12590.0 404.535   2
 -11   3   0 12112.9 512.134   6
 -11  -3   0 11770.7 554.195   5
  11  -3   1 592.645 110.407   2
  11   3   1 734.218 107.696  10
 -11   3   1 304.713 80.5653  10
 -11  -3   1 597.022 101.226  10
 -11  -3   1 472.068 109.881   5
 -11  -3   1 431.848 65.0875   2
  11   3   1 468.382 102.289   9
 -11  -3   1 456.183 91.5215   8
  11   3   1 751.737 117.794   4
 -11   3   1 422.435 91.0715   6
 -11  -3   2 6751.65 363.670  10
 -11   3   2 6674.18 396.115  10
  11   3   2 7201.35 388.700   9
  11   3   2 7493.73 388.302   4
 -11  -3   2 6854.31 376.214   8
  11  -3   2 6878.40 387.587   2
 -11  -3   2 7136.22 317.710   2
 -11   3   2 6554.37 366.748   6
 -11  -3   2 7764.36 437.876   5
 -11  -3   3 2786.48 229.203  10
 -11   3   3 2644.68 245.044  10
  11   3   3 2562.13 224.797   9
  11  -3   3 2468.53 222.838   2
  11   3   3 2674.85 221.925   4
 -11  -3   3 2421.57 218.510   8
 -11   3   3 2807.47 229.418   6
 -11  -3   3 2541.99 252.893   5
 -11  -3   4 6822.13 385.230  10
 -11   3   4 6052.02 386.494  10
  11   3   4 6434.73 375.171   9
  11  -3   4 6183.46 377.712   2
 -11  -3   4 6213.74 372.036   8
  11   3   4 6213.10 351.076   4
 -11   3   4 6086.12 360.165   6
 -11  -3   4 6268.80 413.686   5
 -11  -3   5 162.326 81.4773  10
 -11   3   5 162.900 68.8587  10
 -11  -3   5-18.8431 80.3811   5
  11  -3   5 231.316 54.1817   3
  11   3   5 230.250 73.6099   9
 -11  -3   5 41.6289 65.7164   8
  11   3   5 154.462 64.0004   4
 -11   3   5 154.380 81.9518   6
  11  -3   5 125.425 69.6887   2
  11  -3   6 4442.63 234.695   3
 -11  -3   6 4141.73 320.234  10
 -11   3   6 3269.90 290.723  10
  11   3   6 4037.91 295.942   9
  11  -3   6 3570.43 297.543   2
 -11  -3   6 3984.22 306.744   8
  11   3   6 3773.00 278.194   4
 -11   3   6 3748.80 286.426   6
 -11  -3   6 3702.40 320.823   5
 -11  -3   7 1018.12 182.517  10
 -11   3   7 617.467 137.263  10
 -11  -3   7 880.192 159.914   5
  11  -3   7 882.616 112.700   3
  11   3   7 886.022 151.990   9
 -11  -3   7 924.022 159.819   8
  11   3   7 773.962 128.091   4
 -11   3   7 782.395 133.837   6
  11  -3   7 734.951 144.937   2
 -11  -3   8 1446.73 222.845  10
 -11   3   8 1394.24 203.226  10
 -11  -3   8 1123.84 190.100   5
  11   3   8 1266.79 185.198   9
 -11  -3   8 1316.01 183.609   8
  11   3   8 1496.60 186.803   3
 -11   3   8 1578.95 187.103   6
  11  -3   8 1131.34 174.195   2
 -11  -3   9 460.261 147.342  10
  11  -3   9 393.333 118.398   2
  11   3   9 387.542 114.103   9
  11   4  -8 195.370 59.7624   4
 -11   4  -8 53.2522 58.9685   7
 -11   4  -7 746.871 143.538   1
  11   4  -7 661.167 128.760   4
 -11   4  -7 843.224 139.201   7
  11  -4  -6 602.898 137.561   2
 -11  -4  -6 745.281 160.387   5
  11   4  -6 494.691 102.590   9
  11   4  -6 742.969 134.839   4
 -11   4  -6 569.406 118.124   7
  11  -4  -5-2.53856 46.5556   2
 -11  -4  -5 13.3579 66.0264   5
  11   4  -5 164.741 62.8277   9
  11   4  -5 87.0661 67.9871   4
 -11   4  -5 45.4326 52.8638   7
 -11   4  -5 193.142 69.9691   6
  11  -4  -4 1038.00 171.571   2
 -11  -4  -4 914.325 157.158   5
  11   4  -4 733.514 125.964   9
  11   4  -4 804.781 136.351   4
 -11   4  -4 1000.38 156.224   7
 -11   4  -4 869.854 131.962   6
  11  -4  -3 516.268 135.022   2
 -11  -4  -3 246.326 86.0351   5
  11   4  -3 294.773 80.2106   9
 -11  -4  -3 169.288 67.1437   8
  11   4  -3 342.417 99.4242   4
 -11   4  -3 420.221 112.284   7
 -11   4  -3 296.673 84.4172   6
  11  -4  -2 208.539 95.5966   2
 -11  -4  -2 46.6956 58.6641   5
  11   4  -2 242.858 88.3477   9
 -11  -4  -2 86.7635 51.8044   8
  11   4  -2 190.652 84.6757   4
 -11   4  -2 136.531 67.4513   7
 -11   4  -2 150.146 68.4341   6
  11  -4  -1 82.9551 56.4089   2
 -11   4  -1 51.2962 45.6472  10
 -11  -4  -1 126.768 94.4548   5
  11   4  -1-34.1277 57.1915   9
 -11  -4  -1 33.3938 46.7816   8
 -11   4  -1 184.094 99.1233   7
  11   4  -1 72.7638 43.0048   4
 -11   4  -1 120.122 63.5923   6
 -11   4   0 1973.87 202.111  10
 -11  -4   0 2086.56 162.078  10
  11   4   0 2186.08 216.401   9
 -11  -4   0 2028.93 203.831   8
  11   4   0 2367.48 230.384   4
  11  -4   0 1822.28 217.100   2
 -11   4   0 2182.36 213.275   6
 -11  -4   0 2158.43 235.679   5
 -11   4   1 103.907 64.4282  10
 -11  -4   1 143.196 54.5976  10
 -11  -4   1 37.4107 61.0856   5
  11   4   1 145.681 75.6770   9
 -11  -4   1 136.250 77.4368   8
  11   4   1 88.5724 63.0002   4
 -11   4   1-4.47183 46.5804   6
  11  -4   1-73.4596 68.7621   2
 -11   4   2 171.506 72.7761  10
 -11  -4   2 57.5594 45.5294  10
 -11  -4   2 326.270 110.137   5
  11   4   2 155.827 89.1798   9
 -11  -4   2 220.673 93.8565   8
  11   4   2 226.086 82.8749   4
 -11   4   2 285.389 95.8481   6
  11  -4   2 70.0258 64.2483   2
 -11  -4   3 206.073 63.9351  10
 -11   4   3 171.938 68.9056  10
 -11  -4   3 408.399 124.764   5
  11   4   3 390.898 101.964   9
 -11  -4   3 249.795 90.5297   8
  11   4   3 403.543 106.798   4
 -11   4   3 422.839 112.564   6
  11  -4   3 168.365 76.3265   2
 -11  -4   4 1070.84 140.833  10
 -11   4   4 752.864 140.899  10
 -11  -4   4 1233.83 194.799   5
  11   4   4 1284.47 179.912   9
 -11  -4   4 1024.16 158.568   8
  11   4   4 849.115 146.240   4
 -11   4   4 1161.82 175.254   6
  11  -4   4 1153.09 175.425   2
 -11  -4   5 64.1537 65.4172  10
 -11   4   5 178.687 79.3142  10
 -11  -4   5 221.614 100.978   5
  11   4   5 36.2598 70.7111   9
 -11  -4   5 206.915 99.0005   8
  11   4   5 34.1136 59.8237   4
 -11   4   5 162.229 67.0671   6
  11  -4   5 188.587 84.1614   2
 -11  -4   6 795.503 142.488  10
 -11   4   6 548.894 129.684  10
 -11  -4   6 523.812 145.932   5
  11   4   6 478.794 115.685   9
 -11  -4   6 613.012 131.945   8
  11   4   6 639.061 127.697   4
 -11   4   6 939.385 154.351   6
  11  -4   6 784.517 144.423   2
 -11  -4   7 620.016 138.978  10
 -11   4   7 720.460 149.123  10
  11   4   7 796.788 150.690   9
  11   4   7 741.283 136.151   4
  11  -4   7 760.733 149.552   2
 -11   4   8 136.859 93.0538  10
  11   5  -5 320.969 107.240   9
 -11   5  -5 402.940 117.078   7
  11   5  -4 2447.78 244.949   9
 -11   5  -4 2158.18 239.271   7
 -11   5  -4 2425.30 236.804   6
 -11  -5  -3 74.1145 88.3622   5
  11   5  -3 67.2047 74.5597   9
 -11  -5  -3-88.4765 55.8146   8
 -11   5  -3 72.3813 72.4562   7
  11   5  -3 78.1635 69.9098   4
 -11   5  -3 111.903 85.8928   6
 -11  -5  -2 2501.07 271.574   5
  11   5  -2 2700.10 259.941   9
 -11  -5  -2 2271.31 221.280   8
  11   5  -2 2505.66 260.329   4
  11  -5  -2 2126.09 259.869   2
 -11   5  -2 2027.81 226.637   7
 -11   5  -2 2385.15 244.150   6
  11  -5  -1 563.119 139.345   2
 -11  -5  -1 771.334 158.832   5
  11   5  -1 485.819 116.004   9
 -11  -5  -1 802.760 136.608   8
 -11   5  -1 521.546 123.801   7
  11   5  -1 708.998 148.474   4
 -11   5  -1 559.583 130.774   6
  11  -5   0 175.950 104.986   2
 -11   5   0 29.8862 41.1367  10
 -11  -5   0 81.8320 64.3708   5
  11   5   0 181.664 78.7961   9
 -11  -5   0 170.075 95.4089   8
  11   5   0 190.103 86.6716   4
 -11   5   0 129.839 94.0739   6
 -11   5   1 398.410 87.8099  10
 -11  -5   1 488.270 133.098   5
  11   5   1 588.723 136.119   9
 -11  -5   1 310.792 91.4250   8
  11   5   1 452.814 121.678   4
 -11   5   1 862.875 156.501   6
  11  -5   1 682.758 141.835   2
 -11   5   2 2196.92 214.396  10
  11   5   2 2526.67 270.873   9
  11  -5   2 2261.06 255.963   2
 -11  -5   2 2568.28 265.917   8
  11   5   2 2878.96 283.266   4
 -11   5   2 2295.08 253.448   6
 -11  -5   2 3103.21 299.758   5
 -11   5   3 17.7775 49.0174  10
 -11  -5   3 20.5104 67.8827   5
 -11  -5   3 41.2666 66.6727   8
  11   5   3 47.8481 61.6803   4
  11   5   4 2795.37 281.942   4
  12   0 -10-80.3998 77.4119   4
  12   0  -9 3231.40 272.665   4
 -12   0  -9 3051.63 323.727   1
  12   0  -9 2695.30 265.807   2
  12   0  -8 1109.97 167.257   2
  12   0  -8 1022.97 150.762   4
 -12   0  -8 1108.86 197.070   1
  12   0  -7 8598.11 449.473   4
 -12   0  -7 9540.49 548.224   1
  12   0  -7 9171.45 472.105   2
  12   0  -6 2947.34 238.799   4
 -12   0  -6 2716.84 275.196   1
  12   0  -6 2421.03 219.345   2
  12   0  -5 9127.35 436.568   2
  12   0  -5 9069.00 348.388   3
  12   0  -4 404.893 62.0604   3
  12   0  -4 284.141 73.9420   2
 -12   0  -4 455.204 93.0318   7
 -12   0  -3 41226.7 1333.79  10
 -12   0  -3 42353.6 1104.28   5
 -12   0  -3 40126.5 1207.03   7
  12   0  -3 41441.5 1188.81   2
  12   0  -3 41870.9 1060.94   3
 -12   0  -2 240.954 90.1877  10
  12   0  -2 331.055 46.6416   3
 -12   0  -2 416.912 59.7391   5
  12   0  -2 325.259 80.6259   4
  12   0  -2 334.084 72.9802   2
 -12   0  -2 397.289 83.2322   7
 -12   0  -1 23081.9 643.685   5
 -12   0  -1 20455.2 831.729  10
  12   0  -1 23033.1 766.748   4
 -12   0  -1 22809.8 750.080   7
  12   0  -1 22865.7 710.384   2
  12   0  -1 23278.3 609.628   3
 -12   0   0 279.914 78.0447  10
 -12   0   0 397.818 54.2588   5
  12   0   0 427.014 71.6574   2
  12   0   0 306.802 42.8582   3
  12   0   0 436.347 83.1434   4
 -12   0   0 222.717 66.9534   7
 -12   0   0 274.046 57.1358   2
 -12   0   1 20866.8 848.360  10
  12   0   1 22894.9 768.877   9
  12   0   1 23352.2 758.697   4
 -12   0   1 23158.5 717.007   2
 -12   0   1 21809.9 735.688   7
  12   0   1 23019.2 685.826   2
  12   0   1 24960.8 683.756   5
 -12   0   1 24226.4 671.673   5
 -12   0   2 437.212 115.844  10
  12   0   2 280.720 59.4793   5
 -12   0   2 366.121 64.8691   5
  12   0   2 252.462 48.8415   2
  12   0   2 269.850 73.0415   9
  12   0   2 206.826 64.2181   4
 -12   0   2 359.738 72.9931   7
 -12   0   3 41195.4 1353.59  10
  12   0   3 43689.1 1229.59   9
  12   0   3 42773.2 1194.48   4
  12   0   3 44535.7 1108.83   2
 -12   0   3 43392.5 1194.93   7
  12   0   3 44007.4 1116.51   3
 -12   0   3 38562.1 1178.50   5
  12   0   3 40953.7 1188.84   5
  12   0   4 375.191 56.4922   2
 -12   0   4 362.035 119.435  10
 -12   0   4 347.249 76.2968   5
  12   0   4 320.723 69.9533   5
  12   0   4 347.963 61.9499   3
  12   0   4 181.156 62.0308   9
  12   0   4 402.011 73.6599   4
 -12   0   4 258.624 67.4751   7
  12   0   4 294.753 61.7265   6
 -12   0   5 8109.40 491.864  10
  12   0   5 8130.72 386.752   9
  12   0   5 8557.53 355.648   4
  12   0   5 8834.27 309.556   2
 -12   0   5 8675.31 377.915   7
  12   0   5 8876.45 355.181   6
  12   0   5 8972.25 364.872   3
 -12   0   5 9215.71 408.608   5
  12   0   5 9606.40 404.576   5
 -12   0   6 2816.13 289.884  10
  12   0   6 2843.12 207.088   9
  12   0   6 2707.22 170.100   4
  12   0   6 2860.84 150.131   2
 -12   0   6 2816.08 197.440   7
  12   0   6 2655.61 193.124   3
 -12   0   6 2651.72 208.205   5
 -12   0   7 8956.07 541.247  10
  12   0   7 7948.27 379.220   9
  12   0   7 8621.50 333.834   4
  12   0   7 9035.48 404.777   3
 -12   0   7 8570.78 419.390   5
 -12   0   8 1014.81 190.062  10
  12   0   8 1241.26 134.788   9
 -12   0   8 1301.25 147.718   3
  12   0   8 926.209 130.859   3
 -12   0   8 1130.66 150.457   5
 -12   0   9 3051.51 339.564  10
 -12   0   9 2985.43 236.673   3
  12   0   9 2372.02 219.323   3
  12   0  10 49.9464 68.8643   3
 -12   0  10 38.2038 67.2452   3
  12   1 -10 33.7959 62.6236   4
  12   1  -9 1994.52 189.269   9
  12   1  -9 1764.48 199.962   4
 -12  -1  -9 2387.48 280.415   1
 -12  -1  -8 547.662 132.975   1
  12   1  -8 632.187 105.948   9
  12  -1  -8 529.893 123.527   2
  12   1  -8 571.107 117.206   4
 -12   1  -8 637.196 156.804   1
  12   1  -7 8103.77 406.329   9
  12   1  -7 8273.90 437.033   4
 -12   1  -7 8929.26 537.510   1
 -12  -1  -7 9354.48 526.286   1
  12  -1  -7 8331.86 452.720   2
  12   1  -6 387.956 89.3212   9
  12  -1  -6 623.065 114.450   2
 -12  -1  -6 780.757 150.388   1
  12   1  -6 536.251 108.543   4
 -12   1  -6 533.933 108.993   7
 -12   1  -6 903.213 162.185   1
 -12  -1  -5 4467.60 268.479   5
  12   1  -5 4761.77 289.542   9
  12   1  -5 4790.95 305.609   4
 -12   1  -5 4637.05 300.537   7
  12  -1  -5 4809.47 304.071   2
 -12   1  -5 4730.28 356.168   1
  12   1  -5 4922.91 299.843   2
 -12  -1  -4 2102.22 169.962   5
  12   1  -4 2085.30 187.873   9
  12   1  -4 2294.82 205.113   4
 -12   1  -4 2160.36 196.793   7
  12  -1  -4 2314.83 199.597   2
  12   1  -4 1876.16 173.174   2
  12   1  -4 2174.33 155.881   3
 -12  -1  -3 9810.19 402.510   5
 -12   1  -3 10458.7 537.218  10
 -12  -1  -3 10519.5 517.938  10
  12   1  -3 9918.01 444.815   9
  12   1  -3 10078.4 457.652   4
 -12   1  -3 9940.58 447.563   7
  12  -1  -3 10311.8 444.993   2
  12   1  -3 9889.07 415.602   2
  12   1  -3 10121.5 377.081   3
 -12  -1  -2 2282.97 164.725   5
 -12   1  -2 2409.37 239.501  10
 -12  -1  -2 2543.53 234.836  10
  12   1  -2 2254.69 191.798   9
  12   1  -2 2191.37 192.949   4
 -12   1  -2 2428.52 198.893   7
  12  -1  -2 2350.09 189.436   2
 -12  -1  -2 2205.44 186.966   7
  12   1  -2 2299.17 168.929   2
  12   1  -2 2217.16 147.879   3
  12   1  -1 8324.64 329.907   3
 -12  -1  -1 8426.40 349.036   5
 -12   1  -1 8712.69 467.015  10
 -12  -1  -1 8103.23 443.477  10
  12   1  -1 7431.95 378.163   9
  12   1  -1 8303.79 394.231   4
 -12  -1  -1 8450.55 309.444   2
 -12   1  -1 7699.67 377.798   7
  12  -1  -1 7731.76 357.191   2
 -12  -1  -1 8273.45 377.637   7
  12   1  -1 8150.65 330.294   2
 -12  -1   0 1532.28 135.039   5
 -12   1   0 1483.42 183.518  10
 -12  -1   0 1376.06 174.284  10
  12   1   0 1257.34 145.036   9
  12   1   0 1511.14 154.485   4
  12  -1   0 1393.67 134.311   2
 -12   1   0 1410.63 148.553   7
 -12  -1   0 1609.14 149.246   7
  12   1   0 1416.43 112.198   2
 -12   1   0 1608.28 155.052   6
  12   1   0 1440.00 135.243   5
 -12   1   1 8853.83 237.221   5
 -12  -1   1 8652.43 467.705  10
 -12   1   1 9340.02 490.678  10
  12   1   1 8577.35 408.253   9
  12   1   1 8801.93 399.876   4
 -12  -1   1 8287.12 342.047   2
  12  -1   1 8244.59 358.933   2
 -12   1   1 9093.76 403.605   7
 -12  -1   1 8435.20 370.285   7
  12   1   1 8877.23 308.029   2
 -12   1   1 8161.57 386.180   6
  12   1   1 9179.70 397.147   5
 -12  -1   1 9984.12 404.076   5
 -12  -1   2 2208.25 230.378  10
 -12   1   2 2489.09 246.349  10
  12   1   2 2383.81 198.011   9
  12   1   2 2489.26 192.045   4
  12  -1   2 2042.00 159.171   2
 -12  -1   2 2292.74 166.053   2
 -12   1   2 2208.72 187.087   7
 -12  -1   2 2122.82 165.238   7
  12   1   2 2294.22 119.275   2
 -12   1   2 1891.62 174.565   6
  12  -1   2 2157.75 95.8548   3
  12  -1   2 2322.32 112.027   5
  12   1   2 2302.42 196.062   5
 -12  -1   2 2010.47 178.460   5
 -12   1   2 2462.58 109.724   5
 -12  -1   3 9346.75 514.171  10
 -12   1   3 10511.1 541.791  10
  12   1   3 10588.1 465.768   9
  12   1   3 10889.2 444.331   4
  12  -1   3 10181.3 404.111   2
 -12   1   3 10618.3 450.327   7
 -12  -1   3 11210.4 420.891   7
  12   1   3 10899.9 307.675   2
 -12   1   3 10679.8 464.295   6
  12  -1   3 11062.8 334.984   3
 -12   1   3 11150.8 376.917   5
 -12  -1   3 10294.3 479.871   5
  12   1   3 11001.6 486.890   5
  12  -1   3 10893.6 378.045   5
 -12   1   4 2173.65 232.096  10
 -12  -1   4 1576.95 199.525  10
  12  -1   4 2026.18 173.196   9
  12   1   4 2031.03 181.782   9
  12  -1   4 2012.40 156.688   4
  12   1   4 1971.14 163.837   4
  12  -1   4 1902.43 149.954   2
 -12  -1   4 2144.56 157.740   7
  12  -1   4 2094.60 159.266   6
 -12   1   4 1922.66 181.655   6
  12  -1   4 2029.91 126.923   3
 -12   1   4 2175.60 150.834   5
 -12  -1   4 1844.10 184.777   5
  12  -1   4 2009.42 145.364   5
 -12  -1   5 4030.06 336.923  10
 -12   1   5 4008.10 332.740  10
  12  -1   5 5113.33 282.470   9
  12   1   5 4556.44 283.410   9
  12  -1   5 5140.12 253.323   4
  12   1   5 4698.80 258.672   4
  12  -1   5 4632.99 249.430   2
 -12  -1   5 5145.25 252.420   7
  12  -1   5 4733.89 242.837   6
  12   1   5 5150.08 279.958   3
  12  -1   5 4850.79 230.371   3
 -12   1   5 4978.66 256.900   5
 -12  -1   5 4881.42 310.579   5
  12  -1   5 5366.02 261.739   5
  12   1   6 647.225 103.696   3
 -12  -1   6 720.172 164.107  10
 -12   1   6 538.358 128.215  10
 -12  -1   6 621.085 114.253   5
  12  -1   6 616.351 87.2804   3
  12  -1   6 643.861 99.1831   9
  12   1   6 722.127 118.568   9
 -12  -1   6 754.880 126.024   8
  12  -1   6 692.951 83.7332   4
  12   1   6 644.631 91.4468   4
 -12  -1   6 765.380 90.3589   7
 -12   1   6 685.780 98.3665   5
  12  -1   6 688.701 97.1989   2
 -12   1   7 8537.14 372.904   3
 -12  -1   7 8889.94 543.144  10
 -12   1   7 8632.92 526.978  10
  12  -1   7 8216.93 374.871   9
  12   1   7 8705.40 412.624   9
  12  -1   7 8869.95 387.591   2
 -12  -1   7 8751.71 449.999   8
  12   1   7 8898.53 372.735   4
 -12  -1   7 8720.10 348.306   7
  12   1   7 8595.56 416.413   3
  12  -1   7 8331.09 373.908   3
 -12  -1   7 8385.71 444.033   5
  12   1   8 678.912 117.025   3
 -12  -1   8 747.916 167.810  10
 -12   1   8 342.713 138.651  10
 -12  -1   8 576.912 121.794   5
  12  -1   8 474.192 94.1980   3
  12   1   8 526.490 94.7998   9
 -12  -1   8 660.914 123.823   8
 -12  -1   9 2297.14 297.180  10
 -12  -1   9 1606.02 201.545   5
  12   1   9 1852.61 183.601   9
  12   1   9 1860.96 201.665   3
  12  -1   9 1880.14 187.069   3
  12  -1  10 51.1116 54.8060   3
 -12  -1  10 57.4967 69.9692   5
 -12  -2  -9 115.702 84.1552   1
  12   2  -9 43.7420 62.0579   4
  12   2  -8 362.283 82.5963   9
  12  -2  -8 480.197 113.839   2
  12   2  -8 494.859 109.705   4
 -12  -2  -8 569.057 138.228   1
 -12   2  -8 465.341 133.108   1
  12   2  -7 100.105 50.4733   9
  12  -2  -7 56.3984 57.7084   2
 -12   2  -7 147.993 82.7809   1
  12   2  -7 80.1204 52.0588   4
 -12   2  -7 208.053 77.1031   7
 -12  -2  -7 198.865 92.2475   1
 -12  -2  -6 321.446 91.3474   5
  12  -2  -6 398.486 104.617   2
  12   2  -6 291.069 78.2798   9
 -12   2  -6 251.813 109.747   1
  12   2  -6 251.478 82.0484   4
 -12   2  -6 239.876 82.7448   7
 -12  -2  -5 407.693 91.3554   5
  12  -2  -5 427.234 106.469   2
  12   2  -5 510.315 101.223   9
  12   2  -5 448.877 98.9106   4
 -12   2  -5 506.186 105.076   7
  12  -2  -4 350.725 85.8936   2
 -12  -2  -4 509.149 99.8692   5
  12   2  -4 353.783 78.4585   9
  12   2  -4 297.832 81.6396   4
 -12   2  -4 285.429 76.0378   7
 -12   2  -4 246.775 60.4378   6
 -12  -2  -3 1309.51 148.716   5
 -12   2  -3 1311.71 179.176  10
  12  -2  -3 1274.71 153.592   2
  12   2  -3 1183.60 142.402   9
  12   2  -3 1182.17 147.266   4
 -12   2  -3 1296.73 154.248   7
 -12   2  -3 1322.25 132.274   6
 -12   2  -2-58.7206 72.1815  10
 -12  -2  -2 44.2548 70.1170  10
  12  -2  -2 67.9313 60.8249   2
 -12  -2  -2 16.5032 49.0333   5
  12   2  -2 38.0886 43.2818   9
  12   2  -2-80.8972 59.1716   4
 -12   2  -2-36.1662 48.7302   7
 -12   2  -2 18.2384 38.5706   6
  12  -2  -1 89.8869 55.4577   2
 -12   2  -1 44.5701 73.7512  10
 -12  -2  -1-53.9835 65.8475  10
 -12  -2  -1 47.9970 48.0860   5
  12   2  -1 21.8862 43.1004   9
  12   2  -1 112.305 58.5318   4
 -12   2  -1 70.5130 68.0200   7
 -12   2  -1 25.9827 47.9434   6
 -12  -2  -1 42.1804 26.3227   2
 -12  -2   0 398.630 58.3945   2
  12  -2   0 351.873 75.3389   2
 -12   2   0 372.628 93.8606  10
 -12  -2   0 334.712 94.1559  10
 -12  -2   0 304.920 77.0385   5
  12   2   0 469.858 90.7584   9
  12   2   0 505.093 90.5913   4
 -12   2   0 470.047 99.6115   7
 -12   2   0 426.028 87.1478   6
  12  -2   1 88.2776 54.3870   2
 -12  -2   1 82.8172 36.5988   2
 -12  -2   1 96.7390 73.4142  10
 -12   2   1-86.3416 85.4534  10
 -12  -2   1 98.9930 58.3749   5
  12   2   1 23.7374 43.1191   9
 -12  -2   1-12.0933 49.5874   8
  12   2   1 83.5963 47.5054   4
 -12   2   1 98.1212 68.9479   7
 -12   2   1-10.8399 35.7628   6
  12  -2   2 78.7434 50.4062   2
 -12  -2   2-15.3261 66.5944  10
 -12   2   2 35.9737 73.5007  10
 -12  -2   2-23.6475 35.7393   2
 -12  -2   2 21.8166 55.7832   5
  12   2   2 39.2372 41.8198   9
 -12  -2   2-3.08334 62.4610   8
  12   2   2 77.4413 57.3687   4
 -12   2   2-11.2912 43.7010   6
  12  -2   3 1169.51 66.6708   3
 -12  -2   3 1334.25 176.112  10
 -12   2   3 1093.67 163.102  10
 -12  -2   3 1189.47 173.017   5
  12   2   3 1114.99 144.176   9
  12   2   3 1305.27 144.678   4
 -12  -2   3 1076.74 141.698   8
 -12  -2   3 1305.37 118.372   7
 -12   2   3 1061.35 137.034   6
  12  -2   3 1034.17 126.284   2
 -12   2   4 392.326 48.1855   5
 -12  -2   4 365.493 116.061  10
 -12   2   4 416.434 117.388  10
 -12  -2   4 237.926 73.4654   5
  12  -2   4 406.939 52.2728   3
  12   2   4 376.639 92.0188   9
 -12  -2   4 265.946 80.5346   8
  12   2   4 477.606 90.0602   4
 -12  -2   4 368.412 62.1023   7
 -12   2   4 369.202 85.7340   6
  12  -2   4 338.676 82.6405   2
 -12  -2   5 577.088 128.918  10
 -12   2   5 688.652 144.250  10
 -12  -2   5 253.464 90.2125   5
  12  -2   5 543.764 72.1413   3
  12   2   5 507.126 98.3292   9
 -12  -2   5 562.191 111.856   8
  12   2   5 548.419 103.339   4
 -12  -2   5 433.561 63.3292   7
 -12   2   5 445.804 101.021   6
 -12   2   5 524.951 71.4157   5
  12  -2   5 485.536 97.4073   2
 -12  -2   6 411.857 116.552  10
 -12   2   6 282.024 116.616  10
 -12  -2   6 223.338 82.3044   5
  12  -2   6 483.122 77.1393   3
  12  -2   6 259.165 67.9069   9
  12   2   6 265.068 79.9902   9
 -12  -2   6 274.127 91.1474   8
  12  -2   6 294.213 57.2446   4
  12   2   6 345.754 82.2935   4
 -12   2   6 240.009 87.4273   6
  12  -2   6 374.284 94.6370   2
  12   2   7 180.883 73.0075   3
 -12  -2   7-63.0635 99.8054  10
 -12   2   7 52.6883 78.5315  10
 -12  -2   7 151.128 85.2905   5
  12  -2   7 235.133 57.5897   3
  12  -2   7 106.121 40.9359   9
  12   2   7 55.0730 46.3187   9
 -12  -2   7 155.250 74.0142   8
  12   2   7 115.728 65.7315   4
 -12   2   7 211.237 76.8443   6
  12  -2   7 76.5843 50.3632   2
  12   2   8 287.631 88.2375   3
 -12  -2   8 532.380 163.593  10
 -12   2   8 315.613 124.298  10
 -12  -2   8 521.901 127.027   5
  12  -2   8 649.992 106.823   3
  12   2   8 480.841 104.179   9
 -12  -2   8 437.087 111.616   8
 -12   2   8 633.116 123.497   6
  12  -2   8 466.219 110.719   2
  12   2   9-72.0922 61.7991   3
 -12  -2   9-7.13865 78.0274   5
  12  -2   9 85.5118 54.0215   3
  12   2   9-2.88400 55.9474   9
 -12  -2   9 20.8006 57.8098   8
 -12  -3  -9 1165.92 179.269   1
  12   3  -9 946.797 156.445   4
  12   3  -8-45.2121 62.4007   4
 -12   3  -8 99.6688 59.8551   7
 -12  -3  -7 2278.16 241.595   5
  12   3  -7 2516.19 215.445   9
  12   3  -7 2401.48 230.112   4
 -12   3  -7 2500.68 242.511   7
  12  -3  -7 2555.85 252.054   2
 -12   3  -7 2482.50 263.536   1
  12  -3  -6 225.074 94.1235   2
 -12  -3  -6 446.425 111.305   5
  12   3  -6 265.341 77.2215   9
  12   3  -6 217.551 77.3727   4
 -12   3  -6 421.166 115.438   7
 -12   3  -6 413.376 125.465   1
 -12  -3  -5 4944.13 344.049   5
  12   3  -5 4600.45 304.690   9
  12   3  -5 4886.35 326.504   4
 -12   3  -5 5552.95 352.420   7
  12  -3  -5 5183.78 353.703   2
 -12   3  -5 5345.65 289.356   6
 -12  -3  -4 1429.95 180.695   5
  12  -3  -4 1202.21 166.681   2
  12   3  -4 1303.68 153.355   9
  12   3  -4 1505.86 177.553   4
 -12   3  -4 1409.60 176.754   7
 -12   3  -4 1218.21 136.254   6
 -12  -3  -3 4159.56 303.962   5
  12   3  -3 4245.12 286.433   9
  12   3  -3 4241.66 296.908   4
  12  -3  -3 4472.51 315.023   2
 -12   3  -3 4567.13 311.760   7
 -12   3  -3 3984.22 262.591   6
  12  -3  -2 386.486 106.183   2
 -12   3  -2 322.629 93.2443  10
 -12  -3  -2 294.489 91.2302   5
  12   3  -2 317.813 85.9919   9
  12   3  -2 513.645 103.036   4
 -12   3  -2 561.468 113.558   7
 -12   3  -2 559.566 100.555   6
 -12  -3  -1 8876.70 479.806   5
 -12   3  -1 10213.9 512.292  10
 -12  -3  -1 10205.2 458.429  10
  12   3  -1 9901.69 475.250   9
  12   3  -1 10571.0 492.118   4
 -12  -3  -1 9870.94 460.161   8
  12  -3  -1 10389.6 500.176   2
 -12   3  -1 10583.5 500.581   7
 -12   3  -1 9956.48 456.173   6
 -12   3   0 1171.19 164.021  10
 -12  -3   0 1279.94 150.740  10
 -12  -3   0 946.688 148.080   5
  12   3   0 1417.45 165.464   9
  12  -3   0 1533.70 180.731   2
 -12  -3   0 1241.63 149.850   8
  12   3   0 1303.88 165.817   4
 -12   3   0 1363.99 171.556   7
 -12   3   0 1224.80 154.459   6
 -12   3   1 9970.91 513.150  10
 -12  -3   1 10707.4 478.522  10
  12   3   1 10225.8 487.679   9
  12   3   1 10846.4 497.045   4
 -12  -3   1 10386.1 486.376   8
  12  -3   1 9939.13 492.268   2
 -12   3   1 9996.00 472.955   6
 -12  -3   1 10471.8 526.779   5
 -12  -3   2 300.600 86.4752  10
 -12   3   2 389.463 101.794  10
 -12  -3   2 414.258 100.110   5
  12   3   2 501.813 103.063   9
 -12  -3   2 465.738 105.589   8
  12   3   2 609.068 116.078   4
 -12   3   2 587.132 116.028   6
  12  -3   2 549.870 108.576   2
 -12  -3   3 4568.76 313.255  10
 -12   3   3 4124.40 320.338  10
  12   3   3 4593.87 310.737   9
 -12  -3   3 4046.94 296.582   8
  12   3   3 4302.19 291.846   4
  12  -3   3 4144.65 304.947   2
 -12   3   3 4279.83 298.170   6
 -12  -3   3 4285.13 339.597   5
 -12  -3   4 1777.94 202.819  10
 -12   3   4 1282.43 184.374  10
 -12  -3   4 1264.77 191.748   5
  12   3   4 1188.86 162.560   9
 -12  -3   4 1303.38 171.562   8
  12   3   4 1243.35 154.043   4
 -12   3   4 1315.90 163.904   6
  12  -3   4 1057.79 155.989   2
 -12  -3   5 6076.43 384.840  10
 -12   3   5 4776.73 364.065  10
  12   3   5 5782.31 364.555   9
  12  -3   5 5063.24 349.948   2
 -12  -3   5 5368.13 358.892   8
  12   3   5 5398.59 333.127   4
 -12   3   5 5536.84 353.546   6
 -12  -3   5 5204.61 391.861   5
 -12  -3   6 329.139 114.858  10
 -12   3   6 472.406 135.056  10
 -12  -3   6 213.570 100.315   5
  12   3   6 337.318 99.1608   9
 -12  -3   6 496.247 131.402   8
  12   3   6 299.803 86.1829   4
 -12   3   6 267.625 89.2837   6
  12  -3   6 132.534 66.2955   2
 -12  -3   7 2130.27 260.123  10
 -12   3   7 2097.61 251.441  10
  12   3   7 2582.66 248.736   9
  12  -3   7 2332.60 247.317   2
 -12  -3   7 2692.82 262.698   8
  12   3   7 2313.99 218.007   4
 -12   3   7 2370.05 235.079   6
 -12  -3   7 2456.38 273.959   5
 -12  -3   8 11.5112 73.4431  10
 -12   3   8 121.441 89.3276  10
 -12  -3   8 0.49862 79.2560   5
  12   3   8 116.501 76.2405   9
  12  -3   8 101.018 81.0800   2
  12   3   9 1347.66 193.676   9
 -12   4  -7 3699.03 304.443   7
  12   4  -6 60.9984 43.2868   9
  12   4  -6 169.576 74.1188   4
 -12   4  -6 258.291 99.5285   7
 -12  -4  -5 3956.42 338.982   5
  12   4  -5 3614.94 280.889   9
  12   4  -5 3523.07 293.782   4
 -12   4  -5 3685.16 301.725   7
  12  -4  -5 4125.17 334.995   2
 -12   4  -5 3636.99 259.318   6
  12  -4  -4 465.046 126.746   2
 -12  -4  -4 461.457 116.674   5
  12   4  -4 189.792 81.3565   9
  12   4  -4 308.107 97.2854   4
 -12   4  -4 313.887 106.713   7
 -12   4  -4 516.369 108.289   6
 -12  -4  -3 6339.72 430.328   5
  12   4  -3 6530.31 394.791   9
  12   4  -3 7553.70 435.527   4
  12  -4  -3 7662.35 464.271   2
 -12   4  -3 7225.80 431.672   7
 -12   4  -3 7419.36 402.477   6
  12  -4  -2 295.984 107.959   2
 -12  -4  -2 23.1001 67.6817   5
  12   4  -2 167.899 68.7193   9
 -12  -4  -2 31.5905 47.8775   8
  12   4  -2 187.417 67.0179   4
 -12   4  -2 215.905 98.6514   7
 -12   4  -2 170.554 75.9530   6
 -12  -4  -1 9169.18 525.812   5
 -12   4  -1 10464.9 518.587  10
  12   4  -1 9975.91 507.311   9
 -12  -4  -1 9582.19 484.549   8
  12   4  -1 11034.0 537.988   4
  12  -4  -1 10577.7 553.596   2
 -12   4  -1 9894.05 524.428   7
 -12   4  -1 10946.2 518.703   6
  12  -4   0 148.805 75.1643   2
 -12   4   0 55.6626 59.9058  10
 -12  -4   0 168.347 59.7970  10
 -12  -4   0 35.5054 57.4140   5
  12   4   0 196.690 77.8776   9
 -12  -4   0 117.138 66.7465   8
  12   4   0 163.775 79.0491   4
 -12   4   0 198.279 89.9058   6
 -12   4   1 8853.39 480.040  10
 -12  -4   1 9927.96 427.185  10
  12   4   1 9819.55 506.036   9
 -12  -4   1 9694.67 492.564   8
  12   4   1 9758.98 510.726   4
  12  -4   1 9480.36 521.197   2
 -12   4   1 9124.26 487.384   6
 -12  -4   1 9842.45 539.604   5
 -12   4   2 39.3451 62.7070  10
 -12  -4   2 148.227 70.6691  10
 -12  -4   2 260.296 103.628   5
  12   4   2 337.443 112.518   9
 -12  -4   2 162.305 79.0286   8
  12   4   2 265.579 97.3080   4
 -12   4   2 109.743 72.5710   6
  12  -4   2 53.8398 74.1014   2
 -12  -4   3 8121.06 398.973  10
 -12   4   3 6910.90 425.656  10
  12   4   3 7719.00 450.020   9
  12  -4   3 7102.93 447.636   2
 -12  -4   3 7012.18 434.227   8
  12   4   3 7336.79 430.702   4
 -12   4   3 6821.11 423.034   6
 -12  -4   3 7551.26 481.156   5
 -12  -4   4 463.362 104.423  10
 -12   4   4 355.629 102.707  10
 -12  -4   4 472.375 145.688   5
  12   4   4 478.615 120.104   9
 -12  -4   4 335.359 97.4626   8
  12   4   4 551.378 119.637   4
 -12   4   4 288.083 94.0261   6
  12  -4   4 219.352 95.5499   2
 -12  -4   5 4174.20 303.248  10
 -12   4   5 3569.93 314.738  10
  12   4   5 4358.70 343.563   9
  12  -4   5 3738.91 326.095   2
 -12  -4   5 4351.22 341.670   8
  12   4   5 4178.64 319.468   4
 -12   4   5 3701.23 315.469   6
 -12  -4   5 3877.40 357.552   5
 -12  -4   6 325.130 103.799  10
 -12   4   6 163.312 90.3506  10
  12   4   6 221.781 91.3992   4
  12  -4   6 243.002 117.530   2
 -12   4   7 3387.73 320.187  10
  12   4   7 3617.23 304.420   4
  12   5  -5 1244.64 173.687   9
 -12   5  -5 1107.08 178.679   7
  12   5  -4 251.123 92.0502   9
 -12   5  -4 279.067 93.9018   7
 -12   5  -4 321.386 91.1884   6
  12   5  -3 1558.48 204.432   9
 -12   5  -3 1519.98 212.117   7
 -12   5  -3 1559.10 195.523   6
  12   5  -2 181.342 91.1081   9
 -12  -5  -2 287.707 95.1014   8
 -12   5  -2 289.506 105.040   7
 -12   5  -2 401.713 121.583   6
  12   5  -1 2494.56 260.441   9
 -12  -5  -1 1698.08 203.718   8
 -12   5  -1 1624.44 214.147   7
 -12   5  -1 1991.18 230.342   6
 -12   5   0-27.5730 59.7309  10
 -12  -5   0 28.1222 70.8038   8
 -12   5   0-31.7067 65.9185   6
 -12   5   1 1440.83 180.008  10
 -12  -5   1 1874.58 225.260   8
 -12   5   2 93.0786 73.1461  10
 -12  -5   2 89.2667 87.6299   8
 -12   5   3 1993.93 214.755  10
  13   0 -10 10.1438 52.5788   4
  13   0  -9 119.770 73.2170   4
  13   0  -8-37.1089 52.5861   2
 -13   0  -8 115.211 77.3367   1
  13   0  -8 20.3728 60.9346   4
 -13   0  -7 73.4026 64.7600   1
  13   0  -7 5.41725 53.3517   2
  13   0  -7-68.6678 62.1307   4
  13   0  -6-54.9087 51.2152   2
  13   0  -6-11.3732 48.8926   4
 -13   0  -6-25.3115 59.0197   1
  13   0  -5-22.3350 49.2770   2
  13   0  -5 32.4957 53.9432   4
  13   0  -4 6.34113 22.0992   3
  13   0  -4-10.3258 42.8387   4
  13   0  -4 80.0687 59.9475   2
 -13   0  -4 64.1156 64.5862   7
  13   0  -3 48.1082 31.7666   3
 -13   0  -3-26.3104 60.6450  10
 -13   0  -3 6.44091 20.8852   5
  13   0  -3 21.6987 50.4517   2
  13   0  -3 10.4521 50.9264   4
 -13   0  -3 12.1199 44.6146   7
 -13   0  -2-57.0397 79.8434  10
  13   0  -2 28.7032 23.9674   3
 -13   0  -2 21.9361 21.1897   5
  13   0  -2-58.8998 44.7435   2
  13   0  -2 28.9163 36.4846   4
 -13   0  -2-11.7440 44.3594   7
 -13   0  -1 21.4645 80.6805  10
  13   0  -1 13.7289 20.9273   3
 -13   0  -1 29.4356 31.4032   5
  13   0  -1 38.5130 41.8754   2
 -13   0  -1-56.3087 32.8906   2
  13   0  -1 75.1337 59.9813   4
 -13   0  -1 169.932 68.7614   7
 -13   0   0 43.4439 70.3895  10
 -13   0   0 9.42842 23.5772   5
  13   0   0-13.5848 23.2723   3
  13   0   0 59.8778 40.2856   2
  13   0   0-23.4289 35.6702   4
 -13   0   0-9.21041 43.8841   7
 -13   0   0-48.9632 31.6951   2
  13   0   1 35.6553 39.4377   5
 -13   0   1-64.7420 93.8651  10
 -13   0   1 24.5310 28.9839   5
  13   0   1 122.117 45.8869   2
  13   0   1 43.5108 38.1565   9
  13   0   1 4.94973 40.4035   4
 -13   0   1-23.0760 42.0070   7
 -13   0   2 17.3843 70.4114  10
  13   0   2 13.3497 30.7904   5
 -13   0   2 14.4737 29.4246   5
  13   0   2 66.0101 33.0646   2
  13   0   2 13.2482 48.0281   9
  13   0   2-7.40247 40.9704   4
 -13   0   2 72.1684 43.9648   7
  13   0   3-8.56791 26.8157   3
 -13   0   3 126.948 100.547  10
  13   0   3-18.8408 38.7927   5
 -13   0   3-47.5420 43.8873   5
  13   0   3 74.1425 37.4844   2
  13   0   3-35.5711 45.8323   9
  13   0   3 4.56589 35.7417   4
 -13   0   3-22.1107 44.4497   7
  13   0   4-4.15348 32.0271   3
 -13   0   4-107.297 86.2932  10
  13   0   4 13.7589 25.5119   2
 -13   0   4 17.1561 36.6293   5
  13   0   4 14.5599 32.8769   5
  13   0   4-87.5841 67.8478   9
  13   0   4 64.7086 50.2299   4
 -13   0   4 19.5043 49.5708   7
  13   0   5-10.6041 39.0959   3
  13   0   5 15.2688 25.0000   2
 -13   0   5 104.682 92.0214  10
 -13   0   5 11.3579 44.8690   5
  13   0   5-0.26138 45.7685   9
  13   0   5 1.19866 37.2950   4
 -13   0   5 45.5393 53.1033   7
  13   0   6 108.035 48.8324   3
 -13   0   6-1.45294 74.7712  10
 -13   0   6 117.497 61.2090   5
  13   0   6-6.23174 41.0521   9
  13   0   6 23.6350 37.3066   4
 -13   0   6-0.46038 37.4535   7
 -13   0   7 8.32245 67.4167  10
  13   0   7 31.1846 53.2398   3
 -13   0   7 21.8356 43.7179   5
  13   0   7 15.3176 38.9451   9
 -13   0   7 12.4212 56.4346   7
 -13   0   8-3.36123 84.3237  10
 -13   0   8 61.3842 63.4674   5
  13   0   8 20.5843 59.5107   3
  13   0   8-19.1852 41.6637   9
 -13   0   8 19.0896 45.1409   7
 -13   0   9-29.6645 47.3846   5
  13   0   9 35.8263 52.2082   3
  13   0  10-17.4042 52.0582   3
  13   1  -9 505.974 113.207   4
 -13  -1  -8 1644.74 232.134   1
  13   1  -8 1244.92 160.397   9
 -13   1  -8 1128.73 205.899   1
  13  -1  -8 1056.60 158.049   2
  13   1  -8 1412.51 183.893   4
 -13   1  -7 786.664 169.987   1
  13   1  -7 587.352 109.397   9
  13  -1  -7 716.797 138.442   2
  13   1  -7 517.861 109.138   4
 -13  -1  -7 831.777 155.299   1
 -13   1  -6 1025.46 184.866   1
  13   1  -6 868.497 133.412   9
  13  -1  -6 1195.15 158.416   2
  13   1  -6 969.018 144.551   4
 -13   1  -6 866.306 138.689   7
 -13  -1  -5 221.158 64.4826   5
  13   1  -5 191.353 68.6724   9
  13  -1  -5 353.611 97.5546   2
  13   1  -5 187.577 76.6504   2
  13   1  -5 436.904 99.0309   4
 -13   1  -5 307.318 93.4693   7
 -13  -1  -4 6596.45 323.895   5
  13   1  -4 6276.37 354.812   9
  13   1  -4 6328.43 365.776   4
 -13   1  -4 6517.65 365.742   7
  13  -1  -4 6206.68 354.319   2
  13   1  -4 6636.05 347.342   2
 -13  -1  -3 1035.98 112.668   5
 -13   1  -3 1229.29 189.624  10
 -13  -1  -3 1092.60 163.019  10
  13   1  -3 1218.46 150.387   9
  13   1  -3 1336.68 156.517   4
 -13   1  -3 1286.09 151.875   7
  13  -1  -3 1462.65 154.402   2
  13   1  -3 1372.27 141.045   2
  13   1  -3 1257.95 114.739   3
 -13  -1  -2 2021.30 158.091   5
 -13   1  -2 2245.98 237.766  10
 -13  -1  -2 2267.56 229.148  10
  13   1  -2 2456.92 207.408   9
  13   1  -2 1962.32 188.696   4
 -13   1  -2 1965.51 188.120   7
 -13  -1  -2 2475.52 205.078   7
  13  -1  -2 2199.71 186.166   2
  13   1  -2 2077.53 162.729   2
  13   1  -2 2187.65 148.875   3
 -13   1  -1 360.013 109.377  10
 -13  -1  -1 303.776 86.9929  10
  13  -1  -1 251.222 69.3782   2
 -13  -1  -1 141.820 49.5550   5
  13   1  -1 324.892 66.5867   3
  13   1  -1 388.274 93.5098   9
  13   1  -1 253.474 60.6074   2
  13   1  -1 300.949 75.6670   4
 -13   1  -1 252.416 82.0392   7
 -13  -1  -1 344.631 76.8422   7
 -13  -1  -1 363.798 62.5789   2
 -13  -1   0 3088.38 203.019   5
 -13   1   0 3562.67 297.253  10
 -13  -1   0 3437.28 287.326  10
  13   1   0 3123.52 239.508   9
  13   1   0 3358.32 241.286   4
 -13  -1   0 3290.56 188.115   2
  13  -1   0 3297.33 215.031   2
 -13   1   0 3139.13 233.646   7
 -13  -1   0 3210.33 225.791   7
  13   1   0 3448.55 189.930   2
  13   1   0 3372.95 209.396   5
 -13  -1   1 29.7320 33.8549   2
  13   1   1 174.956 66.4328   5
 -13  -1   1 117.084 79.1044  10
 -13   1   1 85.4883 72.9992  10
  13  -1   1 99.5886 54.1527   2
 -13  -1   1 159.628 54.2912   5
  13   1   1 178.621 58.3669   9
  13   1   1 136.018 38.0038   2
  13   1   1 196.302 71.7341   4
 -13   1   1 92.7829 52.6665   7
 -13  -1   1 20.1972 48.5701   7
 -13   1   2 2558.81 107.715   5
 -13  -1   2 2650.16 256.500  10
 -13   1   2 2511.03 255.110  10
  13   1   2 2286.07 201.798   9
  13   1   2 2666.41 207.748   4
  13  -1   2 2380.67 177.012   2
 -13   1   2 2609.62 207.769   7
 -13  -1   2 2367.45 181.919   7
  13   1   2 2402.71 128.906   2
  13  -1   2 2516.45 99.7032   3
  13  -1   2 2426.92 109.699   5
  13   1   2 2559.24 207.297   5
 -13  -1   2 2543.38 203.316   5
 -13  -1   3 1489.98 197.849  10
 -13   1   3 2006.54 235.794  10
  13   1   3 1557.60 169.239   9
  13  -1   3 1759.32 159.691   4
  13   1   3 1328.54 144.272   4
  13  -1   3 1634.20 141.201   2
 -13   1   3 1682.99 169.215   7
 -13  -1   3 1749.60 152.243   7
  13   1   3 1701.46 90.0862   2
  13  -1   3 1579.59 95.5930   3
  13  -1   3 1770.06 119.999   5
 -13  -1   3 1448.82 168.793   5
 -13   1   3 1540.03 109.151   5
 -13  -1   4 6819.78 443.554  10
 -13   1   4 6634.19 437.914  10
  13  -1   4 6187.08 337.544   9
  13   1   4 6780.22 366.792   9
  13  -1   4 6949.35 328.029   4
  13   1   4 6622.36 335.122   4
  13  -1   4 6764.13 312.448   2
 -13   1   4 6417.58 349.009   7
 -13  -1   4 6697.98 316.850   7
  13  -1   4 6944.83 264.387   3
 -13   1   4 7601.04 312.834   5
 -13  -1   4 6593.63 381.581   5
  13  -1   5 178.424 57.6747   2
  13   1   5 367.147 80.3304   3
 -13  -1   5 98.6003 91.5425  10
 -13   1   5 343.319 118.020  10
 -13   1   5 284.760 67.2113   5
 -13  -1   5 141.678 67.2721   5
  13  -1   5 196.389 48.6049   3
  13  -1   5 330.896 77.7594   9
  13   1   5 166.576 68.0805   9
  13  -1   5 315.513 67.0276   4
  13   1   5 215.214 62.5654   4
 -13  -1   5 257.686 61.8999   7
  13   1   6 720.783 109.874   3
 -13  -1   6 937.380 182.801  10
 -13   1   6 961.532 180.553  10
 -13   1   6 733.148 103.483   5
 -13  -1   6 1087.78 151.028   5
  13  -1   6 727.065 93.4194   3
  13  -1   6 782.809 113.142   9
  13   1   6 944.631 133.301   9
  13  -1   6 799.488 93.0070   4
 -13  -1   6 1057.19 112.112   7
  13   1   6 889.459 111.878   4
  13  -1   6 664.770 96.4688   2
  13   1   7 623.349 107.263   3
 -13  -1   7 275.278 108.893  10
 -13   1   7 509.939 149.823  10
 -13   1   7 691.061 105.871   5
 -13  -1   7 515.249 113.326   5
  13  -1   7 625.308 94.4545   3
  13  -1   7 665.172 102.744   9
  13   1   7 468.142 94.9412   9
  13   1   8 995.561 146.197   3
 -13  -1   8 816.458 189.599  10
 -13   1   8 944.461 191.864  10
 -13  -1   8 1127.99 166.385   5
  13  -1   8 896.419 121.881   3
  13   1   8 767.278 122.112   9
  13   1   9 405.433 98.8102   3
 -13  -1   9 527.545 131.914   5
  13  -1   9 499.356 104.599   3
  13   2  -9 477.889 110.688   4
  13   2  -8 2634.39 226.175   9
  13   2  -8 2488.66 243.297   4
 -13  -2  -8 2963.21 293.645   1
  13   2  -7 1006.89 139.994   9
  13  -2  -7 1140.88 167.563   2
  13   2  -7 1010.02 154.023   4
 -13   2  -7 1350.25 207.554   1
 -13   2  -7 1078.40 163.493   7
 -13  -2  -6 8225.36 437.250   5
  13   2  -6 8888.11 438.627   9
  13   2  -6 9167.14 470.276   4
 -13   2  -6 9021.66 471.255   7
  13  -2  -6 8690.49 467.404   2
 -13  -2  -5 1184.44 156.056   5
  13  -2  -5 1133.57 158.122   2
  13   2  -5 1217.62 150.156   9
  13   2  -5 1409.33 171.957   4
 -13   2  -5 1517.84 177.625   7
 -13  -2  -4 8167.26 413.371   5
  13   2  -4 8176.30 418.796   9
  13   2  -4 8823.96 445.403   4
 -13   2  -4 8652.62 441.985   7
  13  -2  -4 7896.69 425.269   2
 -13   2  -4 8565.32 379.863   6
 -13   2  -3 874.373 156.486  10
  13  -2  -3 1086.37 143.993   2
 -13  -2  -3 1089.22 138.295   5
  13   2  -3 1208.60 146.716   9
  13   2  -3 1154.68 150.163   4
 -13   2  -3 976.477 144.727   7
 -13   2  -3 885.800 113.971   6
 -13  -2  -2 8717.16 415.849   5
 -13   2  -2 9395.79 507.170  10
 -13  -2  -2 9502.52 474.194  10
  13   2  -2 8586.30 428.969   9
  13   2  -2 8169.27 425.945   4
  13  -2  -2 9050.24 432.874   2
 -13   2  -2 8372.60 431.497   7
 -13   2  -2 8292.64 394.066   6
 -13  -2  -1 3267.09 240.131   5
 -13   2  -1 3386.36 292.970  10
 -13  -2  -1 3311.39 270.294  10
  13   2  -1 3358.35 253.984   9
  13   2  -1 3220.80 249.626   4
  13  -2  -1 3279.11 243.904   2
 -13   2  -1 3542.60 265.241   7
 -13   2  -1 3223.13 230.616   6
 -13   2   0 13198.8 621.516  10
 -13  -2   0 13675.6 597.705  10
  13   2   0 13042.2 557.636   9
  13   2   0 12424.4 543.786   4
  13  -2   0 12399.8 526.953   2
 -13   2   0 12793.4 557.308   7
 -13   2   0 13113.5 532.488   6
 -13  -2   0 13571.9 556.219   5
 -13   2   1 3643.51 299.923  10
 -13  -2   1 3087.47 263.831  10
  13   2   1 3420.75 255.563   9
  13   2   1 3678.28 258.731   4
 -13  -2   1 3639.80 204.734   2
  13  -2   1 3524.37 248.328   2
 -13   2   1 3757.02 270.668   7
 -13   2   1 3379.88 248.975   6
 -13  -2   1 3114.39 250.135   5
 -13  -2   2 9108.56 492.342  10
 -13   2   2 9654.30 520.290  10
  13   2   2 9839.45 468.121   9
  13   2   2 9202.08 440.883   4
 -13  -2   2 9044.19 449.485   8
  13  -2   2 9417.52 430.466   2
 -13   2   2 9317.86 454.902   7
 -13   2   2 8640.38 428.993   6
 -13  -2   2 9254.78 474.387   5
  13  -2   3 1213.05 142.001   2
 -13  -2   3 1254.80 177.056  10
 -13   2   3 1173.50 180.422  10
 -13  -2   3 1033.29 157.666   5
  13   2   3 1161.76 146.914   9
 -13  -2   3 1174.19 155.130   8
  13   2   3 1047.79 133.814   4
 -13  -2   3 1210.07 119.790   7
 -13   2   3 1069.27 141.663   6
 -13  -2   4 8276.82 488.514  10
 -13   2   4 8294.95 495.213  10
  13   2   4 8442.50 434.652   9
  13   2   4 9015.38 418.248   4
 -13  -2   4 8218.14 441.649   8
  13  -2   4 8068.33 399.420   2
 -13  -2   4 8671.81 345.084   7
 -13   2   4 8043.66 423.003   6
 -13  -2   4 7852.51 463.022   5
 -13  -2   5 1078.70 176.334  10
 -13   2   5 1071.27 184.916  10
 -13  -2   5 1109.39 168.732   5
  13   2   5 995.908 141.919   9
 -13  -2   5 1111.04 156.960   8
 -13  -2   5 1066.47 102.867   7
  13   2   5 1217.86 145.378   4
 -13   2   5 1277.03 159.756   6
  13  -2   5 1004.89 135.843   2
 -13  -2   6 9485.58 549.724  10
 -13   2   6 9147.48 539.488  10
  13  -2   6 9210.59 413.685   9
  13   2   6 8622.85 448.899   9
  13  -2   6 8657.37 436.468   2
 -13  -2   6 9098.27 482.803   8
  13   2   6 9042.75 423.758   4
 -13   2   6 8837.01 460.809   6
 -13  -2   6 8785.92 503.844   5
  13   2   7 768.625 131.193   3
 -13  -2   7 892.775 184.339  10
 -13   2   7 689.809 164.464  10
 -13  -2   7 804.232 155.541   5
  13  -2   7 819.462 110.496   9
  13   2   7 965.925 144.906   9
 -13  -2   7 1077.01 164.384   8
  13   2   7 1119.38 139.887   4
 -13   2   7 1131.78 157.447   6
  13  -2   7 830.742 135.234   2
 -13  -2   8 2540.68 302.799  10
  13   2   8 2364.04 230.468   9
 -13  -2   8 2666.65 255.956   8
  13   2   8 2378.66 228.993   3
 -13  -2   8 2860.65 286.757   5
  13   2   9 876.798 154.870   9
 -13   3  -8 907.999 161.552   7
 -13  -3  -7 963.588 160.464   5
  13   3  -7 694.773 117.981   9
  13   3  -7 849.216 141.319   4
 -13   3  -7 1432.98 186.031   7
 -13  -3  -6 1520.49 196.496   5
  13  -3  -6 1688.95 202.900   2
  13   3  -6 1241.54 157.014   9
  13   3  -6 1432.82 183.734   4
 -13   3  -6 1445.61 185.642   7
  13  -3  -5 1369.99 189.541   2
 -13  -3  -5 974.227 158.653   5
  13   3  -5 925.019 138.698   9
  13   3  -5 1330.51 172.816   4
 -13   3  -5 1278.54 171.110   7
 -13   3  -5 999.711 124.384   6
 -13  -3  -4 2270.17 229.520   5
  13   3  -4 1994.06 201.505   9
  13   3  -4 1818.28 201.572   4
 -13   3  -4 2240.02 223.527   7
  13  -3  -4 1605.13 199.267   2
 -13   3  -4 2031.12 180.646   6
  13  -3  -3 1416.21 181.738   2
 -13  -3  -3 1179.82 167.029   5
  13   3  -3 1295.34 161.985   9
  13   3  -3 1570.58 182.730   4
 -13   3  -3 1298.71 174.529   7
 -13   3  -3 1084.17 141.216   6
 -13  -3  -2 3320.92 277.881   5
 -13   3  -2 3472.51 298.854  10
  13   3  -2 3473.22 266.700   9
  13   3  -2 3271.43 265.415   4
  13  -3  -2 3382.80 275.728   2
 -13   3  -2 3651.95 285.015   7
 -13   3  -2 3381.39 250.555   6
 -13   3  -1 1863.80 213.214  10
 -13  -3  -1 2211.08 203.710  10
  13   3  -1 2060.40 203.256   9
 -13  -3  -1 1659.79 190.934   5
  13   3  -1 1745.42 194.001   4
  13  -3  -1 2006.98 209.340   2
 -13   3  -1 1880.11 207.807   7
 -13   3  -1 2001.51 194.632   6
 -13   3   0 5943.19 387.333  10
 -13  -3   0 5697.87 338.954  10
  13   3   0 5077.12 335.893   9
  13   3   0 4833.82 327.528   4
 -13  -3   0 5299.09 336.716   8
  13  -3   0 5471.51 354.367   2
 -13   3   0 5365.93 355.839   7
 -13   3   0 5779.73 341.685   6
 -13  -3   0 5017.24 346.731   5
 -13   3   1 1869.61 218.750  10
 -13  -3   1 1861.09 190.946  10
 -13  -3   1 1720.69 204.046   5
  13   3   1 2110.28 212.345   9
  13   3   1 1983.02 203.125   4
 -13  -3   1 1807.93 195.576   8
  13  -3   1 2030.10 212.101   2
 -13   3   1 1734.29 196.245   7
 -13   3   1 1761.35 189.656   6
 -13  -3   2 3728.26 279.724  10
 -13   3   2 3261.84 290.146  10
  13   3   2 3539.96 283.141   9
  13   3   2 3491.12 271.558   4
 -13  -3   2 3629.16 280.608   8
  13  -3   2 4118.48 301.278   2
 -13   3   2 3636.84 276.511   6
 -13  -3   2 3366.72 293.961   5
 -13  -3   3 1720.88 196.495  10
 -13   3   3 1516.28 205.606  10
 -13  -3   3 1698.34 217.198   5
  13   3   3 1177.21 164.968   9
 -13  -3   3 1561.88 189.522   8
  13   3   3 1498.04 174.341   4
 -13   3   3 1784.09 193.492   6
  13  -3   3 1196.60 165.912   2
 -13  -3   4 2081.86 222.490  10
 -13   3   4 2450.02 258.891  10
  13   3   4 2203.87 222.966   9
 -13  -3   4 2004.81 219.459   8
  13  -3   4 2010.57 219.981   2
  13   3   4 2235.47 215.385   4
 -13   3   4 2230.77 226.066   6
 -13  -3   4 2058.76 243.098   5
 -13  -3   5 1481.21 200.541  10
 -13   3   5 1414.51 201.188  10
 -13  -3   5 1148.36 199.305   5
  13   3   5 1461.44 187.627   9
 -13  -3   5 1455.53 192.608   8
  13   3   5 1338.27 168.664   4
 -13   3   5 1417.10 182.357   6
  13  -3   5 1343.71 178.505   2
 -13  -3   6 1567.78 221.894  10
 -13   3   6 1663.55 222.070  10
 -13  -3   6 1412.42 203.238   5
  13   3   6 1563.33 200.317   9
  13   3   6 1622.37 188.863   4
 -13  -3   6 1806.78 213.279   8
 -13   3   6 1694.81 196.590   6
  13  -3   6 1548.81 198.581   2
 -13  -3   7 1039.78 173.495  10
 -13   3   7 1222.54 202.289  10
 -13  -3   7 1015.95 178.994   5
  13   3   7 1068.39 167.376   9
  13   3   7 894.113 139.569   4
  13  -3   7 921.399 155.532   2
 -13  -3   8 630.819 156.662  10
  13  -3   8 742.706 149.779   2
  13   4  -6 100.775 64.2990   9
 -13   4  -6 9.52761 58.5447   7
 -13  -4  -5 160.905 96.2575   5
  13   4  -5 7.53110 58.4210   9
 -13   4  -5-41.9511 65.9113   7
 -13  -4  -4 110.797 86.8018   5
  13   4  -4-5.76883 66.6493   9
  13   4  -4 138.575 77.8224   4
 -13   4  -4 175.811 88.9087   7
 -13   4  -4 284.085 83.8493   6
  13  -4  -3 758.349 155.898   2
 -13  -4  -3 865.413 155.716   5
  13   4  -3 733.524 132.150   9
  13   4  -3 717.592 131.143   4
 -13   4  -3 1154.96 177.949   7
 -13   4  -3 651.385 119.235   6
  13  -4  -2 718.350 144.930   2
 -13  -4  -2 734.941 149.909   5
  13   4  -2 549.502 120.752   9
  13   4  -2 916.731 153.940   4
 -13   4  -2 587.274 132.439   7
 -13   4  -2 593.118 119.958   6
  13  -4  -1 1755.56 226.094   2
 -13   4  -1 1816.24 206.203  10
  13   4  -1 1996.70 216.077   9
 -13  -4  -1 1639.83 205.712   5
 -13  -4  -1 2202.25 221.027   8
  13   4  -1 1942.35 225.711   4
 -13   4  -1 1743.78 214.738   7
 -13   4  -1 1907.89 210.465   6
  13  -4   0 154.410 101.874   2
 -13   4   0-44.9619 76.5826  10
 -13  -4   0-8.13472 39.5385  10
 -13  -4   0-26.4323 56.7391   5
  13   4   0 31.2968 50.6491   9
 -13  -4   0-89.7141 76.0974   8
  13   4   0 48.3872 66.8879   4
 -13   4   0 24.7506 71.3921   7
 -13   4   0 50.8053 52.4163   6
  13  -4   1 1632.42 214.794   2
 -13  -4   1 1918.22 178.101  10
 -13   4   1 1553.24 195.819  10
 -13  -4   1 1822.75 226.953   5
  13   4   1 2114.72 228.621   9
 -13  -4   1 1839.45 210.633   8
  13   4   1 1971.12 220.065   4
 -13   4   1 2074.87 225.013   6
  13  -4   2 520.444 117.370   2
 -13   4   2 909.137 158.115  10
 -13  -4   2 527.222 102.709  10
 -13  -4   2 744.864 153.611   5
  13   4   2 625.586 134.100   9
 -13  -4   2 837.301 148.514   8
  13   4   2 689.209 141.750   4
 -13   4   2 626.369 134.490   6
 -13  -4   3 906.206 135.054  10
 -13   4   3 669.690 131.715  10
 -13  -4   3 974.495 172.355   5
  13   4   3 1011.23 166.978   9
 -13  -4   3 962.153 159.667   8
  13   4   3 936.944 159.037   4
 -13   4   3 1002.72 164.105   6
  13  -4   3 863.873 161.450   2
 -13  -4   4 111.893 61.5769  10
 -13   4   4 174.830 79.9363  10
 -13  -4   4 218.262 94.6007   5
  13   4   4 177.633 72.0127   9
 -13  -4   4-98.6141 77.0277   8
  13   4   4 228.147 94.9076   4
  13  -4   4 119.750 82.6717   2
 -13   4   5-123.244 86.1123  10
 -13  -4   5 156.829 96.1508   5
  13   4   5 44.9127 63.7482   4
  13  -4   5-36.0728 72.4853   2
 -13   4   6-131.513 101.193  10
  13   4   6-9.35396 68.1619   4
 -13   5  -3 538.975 121.476   6
 -13  -5  -2 1221.65 171.092   8
 -13   5  -2 1374.54 196.144   6
 -13  -5  -1 35.2498 60.4061   8
 -13   5   0 874.755 147.166  10
 -13  -5   0 893.783 159.438   8
 -13   5   1 2.01249 57.7756  10
 -13   5   2 1123.07 165.594  10
  14   0  -8 5310.84 370.754   4
  14   0  -7 2482.63 242.181   4
  14   0  -7 2034.09 220.267   2
  14   0  -6 5839.79 376.316   4
  14   0  -6 5842.49 369.423   2
  14   0  -5 1345.26 174.688   4
  14   0  -5 1252.33 159.648   2
  14   0  -4 21245.4 790.185   4
 -14   0  -4 20242.2 766.423   7
  14   0  -4 20754.9 749.717   2
 -14   0  -3 3192.90 295.382  10
  14   0  -3 2294.73 218.040   4
 -14   0  -3 2617.94 224.172   7
  14   0  -3 2641.68 210.047   2
 -14   0  -2 6533.85 440.466  10
 -14   0  -2 7217.06 286.335   5
  14   0  -2 7376.73 393.326   4
 -14   0  -2 6778.64 371.823   7
  14   0  -2 6556.37 341.526   2
 -14   0  -1 1336.76 104.745   5
 -14   0  -1 1238.70 184.528  10
  14   0  -1 1438.32 165.744   4
 -14   0  -1 1155.67 142.721   7
  14   0  -1 1459.46 142.771   2
 -14   0   0 2186.48 133.432   5
 -14   0   0 1861.49 223.201  10
  14   0   0 2247.76 205.026   9
  14   0   0 2072.62 191.972   4
 -14   0   0 1821.87 178.579   7
  14   0   0 2148.51 164.835   2
  14   0   0 1862.94 107.762   3
 -14   0   1 1046.24 93.9476   5
 -14   0   1 1086.39 170.636  10
  14   0   1 1015.98 139.455   9
  14   0   1 909.257 129.224   4
 -14   0   1 969.785 130.232   7
  14   0   1 969.536 105.027   2
  14   0   1 958.025 92.7813   5
 -14   0   2 8505.95 509.238  10
  14   0   2 8152.91 413.807   9
  14   0   2 8405.20 402.804   4
 -14   0   2 7441.46 379.422   7
  14   0   2 8115.42 332.115   2
  14   0   2 8242.99 299.765   3
 -14   0   2 8552.92 336.581   5
 -14   0   3 1930.23 240.785  10
  14   0   3 2129.35 202.905   9
  14   0   3 2078.17 187.135   4
 -14   0   3 2256.74 190.751   7
  14   0   3 2466.88 153.701   2
  14   0   3 2364.21 147.696   3
 -14   0   3 2531.60 183.216   5
 -14   0   4 20646.4 884.018  10
  14   0   4 19933.1 737.632   9
  14   0   4 21369.8 711.069   4
  14   0   4 21082.2 608.278   2
 -14   0   4 19535.3 701.441   7
  14   0   4 20652.9 635.998   3
 -14   0   4 19030.0 704.147   5
  14   0   5 962.836 107.432   3
 -14   0   5 1216.24 196.798  10
 -14   0   5 1155.98 144.570   5
  14   0   5 774.138 115.647   9
  14   0   5 1056.23 121.417   4
 -14   0   5 963.487 125.584   7
 -14   0   6 6536.39 474.699  10
  14   0   6 5858.16 341.751   9
  14   0   6 6105.20 301.051   4
 -14   0   6 5931.78 323.291   7
  14   0   6 5751.38 302.075   3
 -14   0   6 6755.56 370.736   5
 -14   0   7 1999.54 268.931  10
  14   0   7 2033.93 189.727   9
 -14   0   7 2277.66 193.104   7
  14   0   7 2461.68 196.703   3
 -14   0   7 2328.79 221.344   5
  14   0   8 5602.70 327.624   9
  14   0   8 5387.58 321.942   3
 -14   0   8 5521.28 362.427   5
  14   0   9 1465.52 168.464   3
  14   1  -8 432.874 98.1875   9
  14   1  -8 814.953 141.181   4
  14   1  -7 2258.74 216.974   9
  14   1  -7 2389.87 239.540   4
  14  -1  -7 2258.09 235.767   2
 -14   1  -7 2483.23 287.288   1
  14   1  -6 2949.67 248.394   9
  14   1  -6 3013.93 261.720   4
 -14   1  -6 3011.10 259.920   7
  14  -1  -6 3080.10 265.085   2
  14   1  -5 1295.80 161.829   9
  14  -1  -5 1136.59 158.161   2
  14   1  -5 1113.33 148.185   2
  14   1  -5 1136.76 156.501   4
 -14   1  -5 867.072 135.259   7
 -14  -1  -4 5767.65 307.604   5
  14   1  -4 6032.16 358.793   9
  14   1  -4 6141.64 367.006   4
 -14   1  -4 6048.34 364.051   7
  14  -1  -4 5590.21 341.036   2
  14   1  -4 5504.24 323.978   2
 -14  -1  -3 1218.89 129.826   5
 -14   1  -3 1670.03 223.470  10
 -14  -1  -3 1403.61 199.221  10
  14   1  -3 1572.69 175.059   9
  14  -1  -3 1009.14 141.877   2
  14   1  -3 1570.32 178.183   4
 -14   1  -3 1303.96 162.643   7
  14   1  -3 1210.28 139.365   2
 -14  -1  -2 3735.39 224.627   5
 -14   1  -2 4026.74 336.983  10
 -14  -1  -2 3758.04 310.838  10
  14   1  -2 3646.07 271.259   9
  14   1  -2 3784.86 276.806   4
 -14   1  -2 3641.85 265.358   7
 -14  -1  -2 3896.21 267.463   7
  14  -1  -2 3275.45 238.972   2
  14   1  -2 3303.27 223.600   2
  14   1  -2 3446.57 195.406   3
 -14   1  -1 384.940 116.926  10
 -14  -1  -1 648.871 138.156  10
  14  -1  -1 415.617 80.0465   2
 -14  -1  -1 364.069 67.8465   5
  14   1  -1 356.729 67.1796   3
  14   1  -1 533.969 104.963   9
  14   1  -1 429.833 76.2580   2
  14   1  -1 480.433 96.9939   4
 -14   1  -1 368.576 90.1604   7
 -14  -1  -1 306.177 82.6759   7
 -14  -1   0 2413.22 178.250   5
  14   1   0 2357.18 164.389   3
 -14   1   0 1963.03 239.771  10
 -14  -1   0 2387.25 248.666  10
  14   1   0 2618.00 224.138   9
  14   1   0 2128.56 201.302   4
 -14  -1   0 2315.69 163.939   2
 -14   1   0 2033.32 197.899   7
  14  -1   0 2066.08 177.025   2
 -14  -1   0 2190.91 191.527   7
  14   1   0 2317.08 159.041   2
 -14  -1   1 567.843 136.746  10
 -14   1   1 336.475 122.025  10
  14  -1   1 364.273 76.7433   2
 -14  -1   1 324.849 66.4326   5
  14   1   1 473.381 99.8676   9
  14   1   1 402.221 63.4398   2
  14   1   1 400.757 92.8563   4
 -14   1   1 397.619 93.2984   7
 -14  -1   1 338.157 84.0764   7
 -14  -1   2 4069.38 336.907  10
 -14   1   2 3997.73 339.017  10
  14   1   2 3868.60 278.659   9
  14  -1   2 3595.37 250.597   4
  14   1   2 3721.76 261.156   4
  14  -1   2 3736.36 234.044   2
 -14   1   2 3993.80 272.075   7
 -14  -1   2 3973.57 252.756   7
  14   1   2 4095.50 182.704   2
 -14  -1   2 4179.00 264.997   5
 -14  -1   3 1021.18 175.250  10
 -14   1   3 1149.65 186.747  10
  14  -1   3 1181.43 147.716   9
 -14  -1   3 1257.41 156.388   5
  14   1   3 1058.46 144.527   9
  14   1   3 1283.19 149.238   4
  14  -1   3 1158.90 123.451   2
  14  -1   3 1111.25 130.819   4
 -14  -1   3 1407.54 142.806   7
 -14   1   3 1334.67 153.817   7
  14  -1   3 1212.12 79.1968   3
 -14  -1   4 4815.54 386.852  10
 -14   1   4 4989.02 392.993  10
  14  -1   4 4844.75 306.029   9
  14   1   4 5243.53 329.058   9
  14  -1   4 5318.97 292.917   4
  14   1   4 5408.17 304.714   4
  14  -1   4 5297.07 274.304   2
 -14   1   4 5393.01 321.597   7
 -14  -1   4 5227.06 281.746   7
  14  -1   4 5227.37 217.142   3
 -14  -1   4 5119.60 340.152   5
  14  -1   5 981.017 110.236   2
  14   1   5 1015.23 122.716   3
 -14  -1   5 1235.11 208.251  10
 -14   1   5 944.833 174.093  10
 -14  -1   5 965.524 152.398   5
  14  -1   5 857.803 127.521   9
  14  -1   5 1041.30 120.434   4
  14   1   5 1023.37 141.389   9
 -14  -1   5 1094.15 124.899   7
  14   1   5 1009.45 123.607   4
 -14   1   5 961.957 140.421   7
  14  -1   5 977.185 94.1937   3
 -14  -1   6 2990.91 321.363  10
 -14   1   6 3151.44 323.041  10
  14  -1   6 3085.25 233.706   9
  14   1   6 3012.84 247.221   9
  14   1   6 3116.06 219.622   4
  14  -1   6 3023.20 201.380   2
 -14   1   6 3037.86 241.752   7
 -14  -1   6 3273.02 211.499   7
  14   1   6 2801.95 219.131   3
 -14  -1   6 3120.34 271.201   5
 -14  -1   7 2307.06 288.061  10
 -14   1   7 1975.80 271.526  10
 -14  -1   7 1861.60 217.937   5
  14  -1   7 2133.05 190.339   9
  14   1   7 2156.55 205.780   9
  14   1   7 2533.55 214.641   3
  14   1   8 436.002 101.673   3
 -14  -1   8 545.019 127.158   5
  14   1   8 497.755 104.309   9
  14   1   9 1034.62 154.984   3
 -14  -1   9 1029.51 177.984   5
  14   2  -8 25.7473 58.7022   9
  14   2  -7 33.8374 56.5953   9
  14   2  -7 52.0272 67.5285   4
 -14   2  -7 69.1011 50.3619   7
 -14  -2  -6 319.426 88.6097   5
  14  -2  -6 580.954 129.342   2
  14   2  -6 375.069 104.836   9
  14   2  -6 455.516 109.705   4
 -14   2  -6 407.617 106.978   7
 -14  -2  -5 67.6706 56.6296   5
  14  -2  -5 10.4341 62.8087   2
  14   2  -5 43.1035 66.8627   9
  14   2  -5 49.5387 61.4840   4
 -14   2  -5 24.6223 53.5130   7
 -14  -2  -4 356.576 78.1215   5
  14  -2  -4 565.602 121.552   2
  14   2  -4 353.170 97.1227   9
  14   2  -4 557.874 115.096   4
 -14   2  -4 498.733 110.979   7
 -14   2  -3 485.894 124.882  10
  14  -2  -3 469.942 103.449   2
 -14  -2  -3 440.289 92.8074   5
  14   2  -3 289.718 84.0192   9
  14   2  -3 323.785 85.4987   4
 -14   2  -3 283.204 78.1239   7
 -14   2  -3 348.792 80.6339   6
 -14   2  -2 88.2895 84.3274  10
 -14  -2  -2 99.2553 66.7987  10
  14  -2  -2 135.221 68.4353   2
 -14  -2  -2 105.418 51.6895   5
  14   2  -2 80.6113 50.9951   9
  14   2  -2 55.0757 47.8951   4
 -14   2  -2 100.359 75.9044   7
 -14   2  -2 6.87345 41.6658   6
 -14   2  -1 240.096 94.0278  10
 -14  -2  -1 36.2807 54.6053  10
  14  -2  -1 369.765 92.3248   2
 -14  -2  -1 79.6326 45.5274   5
  14   2  -1 252.212 80.8795   9
  14   2  -1 293.517 95.3376   4
 -14   2  -1 79.4589 56.0090   7
 -14   2  -1 120.462 60.3441   6
  14  -2   0 844.881 126.313   2
 -14   2   0 907.245 166.364  10
 -14  -2   0 1007.75 152.494  10
 -14  -2   0 751.898 117.803   5
  14   2   0 1129.50 148.095   9
  14   2   0 633.926 119.111   4
 -14   2   0 852.862 132.376   7
 -14   2   0 740.036 115.198   6
  14  -2   1 265.595 74.7376   2
 -14   2   1 371.763 114.955  10
 -14  -2   1 342.868 118.195  10
 -14  -2   1 214.436 71.8027   5
  14   2   1 175.067 73.2767   9
  14   2   1 218.403 86.0310   4
 -14   2   1 211.037 82.9259   7
 -14   2   1 234.946 77.6237   6
  14  -2   2 227.610 78.6319   2
 -14  -2   2 167.936 81.3599  10
 -14   2   2-25.4038 67.8750  10
 -14  -2   2 7.20672 48.4109   5
  14   2   2 12.6233 48.8110   9
  14   2   2 125.981 62.4616   4
 -14   2   2-42.0826 57.2081   7
 -14   2   2 128.495 65.8343   6
  14  -2   3 422.187 94.8329   2
 -14  -2   3 433.682 116.298  10
 -14   2   3 424.556 121.558  10
 -14  -2   3 256.255 88.9779   5
  14   2   3 432.878 95.9888   9
  14   2   3 431.674 96.0187   4
 -14   2   3 368.997 99.2589   7
 -14   2   3 475.910 106.295   6
  14  -2   4 383.404 90.5752   2
 -14  -2   4 411.386 118.185  10
 -14   2   4 504.785 132.389  10
 -14  -2   4 381.770 111.801   5
  14   2   4 297.076 96.3148   9
 -14  -2   4 419.291 103.105   8
  14   2   4 415.083 96.5566   4
 -14  -2   4 318.494 70.2046   7
 -14   2   4 443.169 100.592   6
 -14  -2   5 227.558 112.828  10
 -14   2   5 121.952 105.968  10
 -14  -2   5-34.6396 88.6246   5
  14  -2   5 12.4982 40.8067   9
  14   2   5 3.79293 53.2867   9
 -14  -2   5 42.9763 61.9066   8
  14  -2   5 59.1258 54.7019   4
  14   2   5-40.0414 47.4885   4
 -14   2   5 73.6502 60.7733   6
  14  -2   5 11.8671 43.5578   2
 -14  -2   6 616.993 143.435  10
 -14   2   6 747.366 165.396  10
 -14  -2   6 534.381 137.908   5
  14  -2   6 673.038 111.534   9
  14   2   6 501.569 113.361   9
 -14  -2   6 553.739 127.808   8
  14   2   6 497.524 98.8704   4
 -14   2   6 520.735 111.358   6
  14  -2   6 608.576 110.480   2
  14   2   7 185.360 85.9446   3
 -14  -2   7 106.055 97.3911  10
 -14   2   7 223.059 101.811  10
 -14  -2   7-1.88929 69.4809   5
  14   2   7 103.617 73.0772   9
 -14  -2   7 43.0944 75.7057   8
  14  -2   7 56.3340 49.9870   2
  14   2   8 7.70760 68.3979   3
 -14  -2   8 166.888 107.959   5
  14   2   8 206.816 83.9773   9
  14   3  -7 690.417 123.815   9
 -14  -3  -6 1786.28 214.139   5
  14   3  -6 1706.17 193.565   9
  14   3  -6 1943.95 218.684   4
 -14   3  -6 2253.66 241.675   7
  14  -3  -5 785.735 147.554   2
 -14  -3  -5 810.200 144.144   5
  14   3  -5 540.512 115.859   9
  14   3  -5 681.151 126.058   4
 -14   3  -5 794.391 144.986   7
 -14   3  -5 546.966 95.8815   6
  14  -3  -4 491.278 115.771   2
 -14  -3  -4 449.629 114.668   5
  14   3  -4 438.977 95.3897   9
  14   3  -4 471.499 114.646   4
 -14   3  -4 362.947 101.916   7
 -14   3  -4 505.108 94.4551   6
  14  -3  -3 480.197 113.203   2
 -14  -3  -3 425.111 112.780   5
  14   3  -3 334.666 90.9391   9
  14   3  -3 555.251 120.013   4
 -14   3  -3 493.343 114.278   7
 -14   3  -3 413.315 88.7846   6
 -14   3  -2 935.395 158.677  10
  14  -3  -2 784.838 140.935   2
 -14  -3  -2 796.432 138.151   5
  14   3  -2 709.319 122.515   9
  14   3  -2 853.756 140.069   4
 -14   3  -2 700.143 136.653   7
 -14   3  -2 789.454 125.370   6
  14  -3  -1 601.341 125.514   2
 -14   3  -1 651.994 134.436  10
 -14  -3  -1 764.935 132.202  10
 -14  -3  -1 520.484 112.706   5
  14   3  -1 517.791 113.106   9
  14   3  -1 611.957 126.479   4
 -14   3  -1 690.738 136.535   7
 -14   3  -1 528.743 113.032   6
 -14  -3   0 2276.57 229.405   5
 -14   3   0 2332.68 248.250  10
 -14  -3   0 2358.79 226.104  10
  14   3   0 2783.32 250.680   9
  14   3   0 2714.04 244.602   4
  14  -3   0 2563.60 241.747   2
 -14   3   0 2849.00 262.995   7
 -14   3   0 2721.48 237.560   6
  14  -3   1 451.980 112.216   2
 -14   3   1 369.110 106.117  10
 -14  -3   1 394.750 104.648  10
 -14  -3   1 378.485 101.323   5
  14   3   1 563.196 115.747   9
 -14  -3   1 584.900 119.736   8
  14   3   1 604.161 118.265   4
 -14   3   1 541.325 116.924   7
 -14   3   1 503.600 105.751   6
  14  -3   2 782.197 133.476   2
 -14   3   2 814.451 159.370  10
 -14  -3   2 617.768 119.013  10
 -14  -3   2 842.753 153.607   5
  14   3   2 780.806 141.592   9
 -14  -3   2 754.764 137.227   8
 -14   3   2 999.541 170.889   7
  14   3   2 828.313 134.104   4
 -14   3   2 755.990 134.034   6
  14  -3   3 503.256 109.599   2
 -14  -3   3 196.517 96.3836  10
 -14   3   3 475.901 119.743  10
 -14  -3   3 272.304 101.146   5
  14   3   3 216.992 87.5053   9
 -14  -3   3 236.456 92.5408   8
  14   3   3 199.269 68.7490   4
 -14   3   3 369.902 99.5244   6
 -14  -3   4 454.750 121.358  10
 -14   3   4 499.052 132.221  10
 -14  -3   4 599.025 139.027   5
  14   3   4 469.188 116.148   9
 -14  -3   4 576.106 135.148   8
  14   3   4 482.286 104.744   4
 -14   3   4 557.760 120.455   6
  14  -3   4 428.756 105.592   2
 -14  -3   5 563.370 137.512  10
 -14   3   5 612.717 143.899  10
 -14  -3   5 863.822 180.263   5
  14   3   5 809.245 145.652   9
 -14  -3   5 870.971 152.050   8
  14   3   5 913.091 144.122   4
 -14   3   5 760.594 142.990   6
  14  -3   5 658.874 138.127   2
 -14  -3   6 2041.74 254.530  10
 -14   3   6 2086.64 255.676  10
 -14  -3   6 1721.70 241.318   5
  14   3   6 2082.58 225.995   9
  14   3   6 1819.37 200.076   4
  14  -3   6 1770.27 212.015   2
 -14  -3   7 624.055 151.341  10
  14  -3   7 589.148 125.388   2
  14   4  -5 961.375 150.072   9
 -14  -4  -4 2787.14 288.022   5
  14   4  -4 2164.02 225.644   9
 -14   4  -4 2571.51 236.332   6
 -14  -4  -3 1141.89 182.837   5
  14   4  -3 1303.44 172.396   9
 -14   4  -3 1125.71 177.256   7
 -14   4  -3 937.775 147.937   6
 -14  -4  -2 3854.75 335.831   5
  14   4  -2 4026.38 314.170   9
  14  -4  -2 4366.94 355.882   2
 -14   4  -2 3550.30 315.896   7
 -14   4  -2 4042.03 306.425   6
  14  -4  -1 1197.37 188.989   2
 -14   4  -1 1191.63 180.405  10
 -14  -4  -1 1092.34 176.975   5
  14   4  -1 1089.02 167.562   9
  14   4  -1 1371.56 193.009   4
 -14   4  -1 1280.70 194.636   7
 -14   4  -1 1213.38 171.574   6
 -14  -4   0 5342.70 392.526   5
 -14   4   0 4761.40 361.634  10
  14   4   0 4869.62 356.467   9
 -14  -4   0 4475.98 336.050   8
  14   4   0 5345.12 377.944   4
  14  -4   0 4759.12 376.392   2
 -14   4   0 4949.51 379.184   7
 -14   4   0 5350.33 365.049   6
  14  -4   1 1165.62 185.576   2
 -14   4   1 730.924 147.776  10
 -14  -4   1 1326.34 195.982   5
  14   4   1 961.259 160.453   9
 -14  -4   1 1145.10 177.709   8
 -14   4   1 814.802 164.226   7
  14   4   1 1265.81 181.716   4
 -14   4   1 1230.17 179.762   6
 -14   4   2 3626.44 316.500  10
 -14  -4   2 4026.29 325.378   8
  14   4   2 3282.71 296.213   4
  14  -4   2 3785.16 324.911   2
 -14   4   2 3387.40 297.010   6
 -14  -4   2 3643.88 330.311   5
  14  -4   3 924.425 160.656   2
 -14   4   3 1245.27 187.921  10
 -14  -4   3 1420.07 214.353   5
  14   4   3 1252.82 183.069   4
 -14   4   4 2286.98 268.464  10
  14  -4   4 2671.49 277.032   2
  14   4   4 2739.79 271.444   4
 -14  -4   4 3011.62 317.042   5
 -14   4   5 910.383 176.035  10
  14   4   5 737.089 139.969   4
  15   0  -7 201.686 98.6977   2
  15   0  -7 33.3108 72.3787   4
  15   0  -6-41.8480 74.3133   2
  15   0  -6-54.0109 61.1074   4
  15   0  -5-51.8679 61.9792   2
  15   0  -5-32.4143 68.8768   4
  15   0  -4 44.8054 61.3802   2
  15   0  -4 63.5477 70.1715   4
 -15   0  -4 63.5884 62.6458   7
 -15   0  -3 159.242 78.5323  10
  15   0  -3 64.2172 57.1379   2
  15   0  -3-48.5468 67.5839   4
 -15   0  -3 82.5928 72.6056   7
 -15   0  -2-56.7200 73.4748  10
 -15   0  -2-10.7865 24.6431   5
  15   0  -2-91.0434 51.8802   2
  15   0  -2 71.7875 71.3693   4
 -15   0  -2 52.8056 51.5688   7
 -15   0  -1 106.820 85.0790  10
  15   0  -1 35.8774 60.6117   9
 -15   0  -1-11.2616 27.0782   5
  15   0  -1-10.4717 40.6661   2
  15   0  -1-33.0627 50.1318   4
 -15   0  -1 50.6670 68.5712   7
 -15   0   0 73.5673 75.7538  10
 -15   0   0 62.9148 31.7492   5
  15   0   0-15.4337 37.1801   2
  15   0   0 0.97668 50.8624   9
  15   0   0 8.38440 46.8261   4
 -15   0   0 40.1875 47.2873   7
 -15   0   1-23.4375 70.8959  10
 -15   0   1 33.8734 23.1028   5
  15   0   1 50.0520 54.2962   2
  15   0   1-67.7707 77.6957   9
  15   0   1-13.5491 44.6248   4
 -15   0   1-35.0165 51.6427   7
  15   0   2 57.4778 34.0198   3
 -15   0   2-52.5283 87.3727  10
 -15   0   2-16.2138 25.6318   5
  15   0   2 21.5548 31.2320   2
  15   0   2 20.2454 50.8644   9
  15   0   2 44.1347 46.4343   4
 -15   0   2-3.06878 50.5933   7
  15   0   3-13.3328 25.8535   3
 -15   0   3 27.0089 75.6774  10
 -15   0   3 45.2433 27.4331   5
  15   0   3-8.71252 28.5986   2
  15   0   3-55.0222 50.7827   9
  15   0   3 34.7354 50.8825   4
 -15   0   3-10.1769 48.9419   7
  15   0   4-24.0610 34.3368   3
 -15   0   4 39.5541 43.0989   5
  15   0   4 1.27220 47.9610   9
  15   0   4 13.9210 41.4731   4
 -15   0   4-0.81750 54.4697   7
  15   0   5-3.28303 38.8227   3
 -15   0   5 110.257 91.5894  10
  15   0   5-20.2325 43.2241   9
  15   0   5-29.8756 46.2438   4
 -15   0   5 104.872 60.1383   7
  15   0   6 33.4709 45.1937   3
 -15   0   6 198.939 127.495  10
  15   0   6 52.4492 39.3112   9
 -15   0   6 85.7285 51.5487   7
  15   0   7-22.8869 57.1705   9
 -15   0   7-6.84101 42.7959   7
  15   1  -8 219.838 91.5771   9
  15   1  -7 3185.27 274.483   9
  15   1  -7 2999.23 277.466   4
  15   1  -6 513.071 116.387   9
  15  -1  -6 733.261 136.991   2
  15   1  -6 704.243 136.877   4
  15   1  -5 3343.60 273.631   9
  15   1  -5 3413.42 286.245   4
 -15   1  -5 2973.33 265.858   7
  15  -1  -5 3173.15 266.276   2
  15   1  -5 3245.71 260.303   2
 -15  -1  -4 10.0488 28.8624   5
  15   1  -4 96.8651 71.1560   9
  15  -1  -4 59.1084 56.3582   2
  15   1  -4-49.9689 49.5332   2
  15   1  -4 120.399 68.3955   4
 -15   1  -4-43.8972 66.7411   7
 -15  -1  -3 7704.91 363.905   5
 -15   1  -3 8554.48 539.221  10
 -15  -1  -3 9152.25 528.730  10
  15   1  -3 7610.64 429.174   9
  15   1  -3 8598.30 457.814   4
 -15   1  -3 8526.15 448.172   7
  15  -1  -3 7932.22 416.113   2
  15   1  -3 8348.25 400.558   2
 -15  -1  -2 2036.85 166.355   5
 -15   1  -2 2735.40 287.996  10
 -15  -1  -2 2109.00 242.048  10
  15   1  -2 2169.04 214.958   9
  15   1  -2 2188.68 216.062   4
 -15   1  -2 2196.11 214.227   7
  15  -1  -2 1777.10 183.122   2
  15   1  -2 1707.65 162.665   2
 -15  -1  -1 6553.07 317.180   5
 -15   1  -1 8067.71 495.155  10
 -15  -1  -1 6970.18 452.073  10
  15   1  -1 6651.43 390.362   9
  15   1  -1 6880.78 395.912   4
 -15   1  -1 6848.11 386.665   7
 -15  -1  -1 6622.56 371.810   7
  15  -1  -1 6537.89 351.267   2
  15   1  -1 6370.42 314.497   2
 -15  -1   0 3166.37 208.829   5
 -15   1   0 3535.05 323.263  10
 -15  -1   0 3091.88 298.197  10
  15   1   0 3097.30 256.368   9
  15   1   0 3231.05 258.853   4
 -15   1   0 3134.57 251.678   7
  15  -1   0 2818.48 214.655   2
 -15  -1   0 3024.80 236.475   7
  15   1   0 3011.66 192.301   2
 -15  -1   1 6547.04 323.115   5
 -15   1   1 6342.70 442.214  10
 -15  -1   1 5635.67 410.877  10
  15   1   1 6332.35 378.919   9
  15  -1   1 5838.01 348.108   4
  15   1   1 6739.85 374.129   4
 -15   1   1 5833.11 352.895   7
  15  -1   1 5648.47 310.212   2
 -15  -1   1 6205.70 341.316   7
  15   1   1 6503.42 274.924   2
 -15   1   2 2413.15 275.099  10
 -15  -1   2 1873.30 235.419  10
  15   1   2 2237.42 218.611   9
  15  -1   2 2114.64 195.780   4
  15   1   2 2344.80 209.149   4
  15  -1   2 2264.78 180.933   2
 -15   1   2 2208.92 206.991   7
 -15  -1   2 2143.65 189.578   7
 -15  -1   2 2266.34 192.567   5
 -15  -1   3 8672.71 538.681  10
 -15   1   3 10039.4 578.008  10
  15  -1   3 8267.33 435.849   9
  15   1   3 8933.22 459.605   9
  15  -1   3 8601.71 416.696   4
  15   1   3 8834.41 434.945   4
  15  -1   3 8881.98 388.277   2
 -15   1   3 8612.07 436.079   7
 -15  -1   3 8515.58 401.536   7
 -15  -1   3 8883.67 438.444   5
  15  -1   4 24.0161 34.2929   2
 -15  -1   4-92.6037 80.1532  10
 -15   1   4 140.198 86.6066  10
 -15  -1   4-13.0765 57.3643   5
  15  -1   4 4.95775 39.4931   9
  15   1   4 64.8683 44.3044   9
  15  -1   4 0.77996 42.8843   4
  15   1   4 72.9008 58.1165   4
 -15   1   4 120.591 69.2658   7
 -15  -1   4 42.3761 48.7132   7
 -15  -1   5 3245.40 331.928  10
 -15   1   5 3237.64 326.219  10
  15  -1   5 3281.43 254.975   9
  15   1   5 3452.44 271.831   9
  15  -1   5 3555.60 237.165   4
  15   1   5 3608.09 249.009   4
  15  -1   5 3348.78 215.902   2
 -15   1   5 3349.94 258.061   7
 -15  -1   5 3458.75 229.681   7
  15   1   5 3484.47 234.359   3
 -15  -1   5 3408.49 289.098   5
  15   1   6 721.069 111.183   3
 -15  -1   6 814.686 182.429  10
 -15   1   6 887.556 197.706  10
 -15  -1   6 850.623 151.801   5
  15  -1   6 696.156 120.809   9
  15   1   6 619.259 122.255   9
  15   1   6 711.777 114.119   4
 -15   1   6 595.554 117.348   7
  15  -1   7 2829.10 230.020   9
  15   1   7 2753.84 241.058   9
 -15   1   7 2608.44 232.603   7
  15   1   7 3078.08 239.249   3
 -15  -1   7 2762.17 273.491   5
  15   1   8 195.294 74.8868   3
 -15  -1   8 289.595 111.393   5
  15   1   8 183.488 72.7841   9
 -15   1   8 312.951 90.1496   7
  15   2  -7 3493.46 283.292   9
 -15  -2  -6 245.229 71.5755   5
  15   2  -6 365.186 102.288   9
  15   2  -6 79.5724 57.1784   4
 -15   2  -6 363.885 115.111   7
 -15  -2  -5 3383.94 266.666   5
  15   2  -5 3136.88 268.156   9
  15   2  -5 3630.68 298.358   4
 -15   2  -5 3698.11 303.883   7
  15  -2  -5 4034.33 313.605   2
 -15  -2  -4 247.163 75.3772   5
  15  -2  -4 309.925 96.3066   2
  15   2  -4 323.377 89.6881   9
  15   2  -4 295.276 102.188   4
 -15   2  -4 432.274 107.068   7
 -15  -2  -3 6901.61 376.060   5
 -15   2  -3 7163.56 481.369  10
  15   2  -3 6584.47 396.000   9
  15   2  -3 6578.57 402.577   4
 -15   2  -3 6927.56 408.577   7
  15  -2  -3 5915.37 372.910   2
 -15   2  -2 520.231 132.492  10
 -15  -2  -2 341.982 109.873  10
  15  -2  -2 532.088 108.383   2
 -15  -2  -2 367.787 83.7502   5
  15   2  -2 506.510 112.365   9
  15   2  -2 576.430 118.759   4
 -15   2  -2 520.683 117.258   7
 -15  -2  -1 12806.7 547.899   5
 -15   2  -1 13960.7 682.009  10
 -15  -2  -1 13720.9 637.702  10
  15   2  -1 12691.5 584.841   9
  15   2  -1 13152.1 589.453   4
  15  -2  -1 12082.9 548.540   2
 -15   2  -1 12748.1 587.816   7
 -15   2  -1 12382.9 544.761   6
 -15   2   0 706.952 146.715  10
 -15  -2   0 816.749 151.815  10
  15  -2   0 742.235 123.085   2
 -15  -2   0 730.458 122.074   5
  15   2   0 759.043 133.787   9
  15   2   0 1060.37 153.426   4
 -15   2   0 921.932 151.542   7
 -15   2   0 1012.53 145.634   6
 -15   2   1 12667.2 655.561  10
 -15  -2   1 13171.1 637.248  10
  15   2   1 13312.0 594.889   9
  15   2   1 12959.0 578.023   4
  15  -2   1 12577.1 544.073   2
 -15   2   1 12720.8 583.352   7
 -15   2   1 12860.1 567.850   6
 -15  -2   1 12220.7 555.290   5
  15  -2   2 535.670 103.631   2
 -15  -2   2 209.693 79.9176  10
 -15   2   2 469.522 141.661  10
 -15  -2   2 498.159 103.837   5
  15   2   2 712.261 123.857   9
  15   2   2 434.096 105.808   4
 -15   2   2 613.303 126.970   7
 -15   2   2 626.642 115.251   6
 -15  -2   3 6545.30 443.935  10
 -15   2   3 7270.46 482.359  10
  15   2   3 6871.46 408.302   9
  15   2   3 6395.94 375.905   4
  15  -2   3 6240.53 354.366   2
 -15   2   3 6789.02 403.576   7
 -15   2   3 6742.28 396.570   6
 -15  -2   3 5867.87 392.581   5
  15  -2   4 424.504 87.2656   2
 -15  -2   4 728.317 158.768  10
 -15   2   4 279.958 136.794  10
 -15  -2   4 543.039 117.070   5
  15  -2   4 288.362 76.0082   4
  15   2   4 415.479 101.029   9
  15   2   4 453.948 105.046   4
 -15   2   4 655.432 125.496   7
 -15   2   4 593.360 115.171   6
 -15  -2   5 3262.12 328.082  10
 -15   2   5 3261.92 327.119  10
  15  -2   5 3424.45 260.490   9
  15   2   5 3277.18 276.472   9
  15  -2   5 3615.16 239.359   4
  15   2   5 3202.91 252.683   4
  15  -2   5 3150.83 245.947   2
 -15   2   5 3375.85 282.500   6
 -15  -2   5 3077.85 304.444   5
  15  -2   6 440.778 101.986   2
 -15  -2   6 332.171 128.390  10
 -15  -2   6 437.770 121.274   5
  15  -2   6 453.300 98.7894   9
  15   2   6 456.743 121.693   9
  15   2   6 428.401 95.6546   4
  15   2   6 248.624 71.8668   3
  15   2   7 3627.95 294.157   9
  15   2   7 2893.40 251.751   3
 -15  -2   7 2790.23 302.097   5
 -15  -3  -6 45.8692 69.9332   5
  15   3  -6 69.0916 63.5783   9
 -15  -3  -5 1305.10 182.299   5
  15   3  -5 1375.39 176.806   9
  15  -3  -4 326.409 107.291   2
 -15  -3  -4 278.011 82.2380   5
  15   3  -4 222.756 78.5815   9
 -15   3  -4 294.660 97.6975   7
 -15   3  -4 339.981 88.7429   6
 -15  -3  -3 2625.52 255.557   5
  15   3  -3 2351.44 234.845   9
  15   3  -3 2725.82 258.528   4
 -15   3  -3 2574.42 260.765   7
  15  -3  -3 3031.96 274.086   2
 -15   3  -3 2297.59 213.344   6
 -15   3  -2 399.652 117.608  10
  15  -3  -2 286.885 93.9907   2
 -15  -3  -2 193.238 77.1753   5
  15   3  -2 326.204 90.8994   9
  15   3  -2 272.705 88.4605   4
 -15   3  -2 467.325 116.629   7
 -15   3  -2 148.166 69.2329   6
 -15  -3  -1 3272.47 283.779   5
 -15   3  -1 3717.50 328.559  10
 -15  -3  -1 3273.41 278.367  10
  15   3  -1 3596.39 292.770   9
  15   3  -1 3719.65 299.731   4
  15  -3  -1 3128.76 277.320   2
 -15   3  -1 3784.42 312.915   7
 -15   3  -1 3281.70 267.955   6
  15  -3   0 880.778 152.288   2
 -15   3   0 717.313 144.393  10
 -15  -3   0 627.076 126.848  10
 -15  -3   0 508.336 120.232   5
  15   3   0 879.894 150.631   9
  15   3   0 716.724 136.566   4
 -15   3   0 573.857 128.777   7
 -15   3   0 584.819 122.372   6
 -15   3   1 3196.43 304.084  10
 -15  -3   1 3215.77 276.201  10
  15   3   1 2974.35 272.576   9
  15   3   1 3180.90 277.693   4
  15  -3   1 3200.01 279.118   2
 -15   3   1 3433.92 300.475   7
 -15   3   1 2947.16 263.263   6
 -15  -3   1 2434.84 250.530   5
  15  -3   2 281.505 97.3049   2
 -15   3   2 153.114 86.0544  10
 -15  -3   2 374.311 104.661  10
 -15  -3   2 299.979 96.3431   5
  15   3   2 245.978 89.4228   9
 -15  -3   2 239.491 87.7348   8
  15   3   2 319.427 94.1098   4
 -15   3   2 309.124 107.208   7
 -15   3   2 379.450 105.317   6
 -15  -3   3 3048.54 284.383  10
 -15   3   3 3234.76 309.756  10
  15   3   3 3444.73 294.677   9
 -15  -3   3 3100.33 283.617   8
  15   3   3 3473.08 286.027   4
  15  -3   3 3192.15 276.524   2
 -15   3   3 2924.69 284.594   7
 -15   3   3 2879.29 266.514   6
 -15  -3   3 2886.11 288.858   5
  15  -3   4 327.476 100.827   2
 -15  -3   4 114.526 67.1896  10
 -15   3   4 197.568 97.2904  10
 -15  -3   4 529.820 131.992   5
  15   3   4 214.070 102.632   9
  15   3   4 229.718 88.0613   4
  15  -3   5 1663.21 200.745   2
 -15  -3   5 1633.23 224.985  10
 -15   3   5 1676.99 234.287  10
 -15  -3   5 2024.24 258.258   5
  15   3   5 1644.57 194.399   4
 -15  -3   6 70.1649 104.541  10
 -15  -3   6 120.726 87.6431   5
  15   3   6 112.183 68.6586   4
  15  -3   6 77.9840 66.6190   2
 -15   4  -4 172.858 83.7860   6
 -15   4  -3 173.203 85.2176   6
 -15  -4  -2 95.1796 66.3862   5
 -15   4  -2-9.73059 52.9996   6
 -15   4  -1 576.823 135.638  10
 -15  -4  -1 713.346 139.263   5
 -15   4  -1 897.452 157.028   6
 -15   4   0-21.6116 63.7586  10
 -15  -4   0-26.8309 70.7816   5
 -15   4   0 39.3697 49.0675   6
 -15   4   1 1003.31 175.722  10
 -15  -4   1 616.402 142.505   5
 -15   4   2 13.4550 70.4683  10
 -15  -4   2-10.9975 62.7774   5
 -15   4   3 143.435 88.5602  10
  16   0  -6 5000.01 357.936   2
  16   0  -5 188.410 71.6303   2
  16   0  -5 565.846 126.136   4
  16   0  -4 3265.15 284.143   4
 -16   0  -4 3486.36 288.562   7
  16   0  -4 3786.09 283.355   2
 -16   0  -3 1134.08 186.745  10
  16   0  -3 928.510 135.480   2
  16   0  -3 1103.09 169.548   4
 -16   0  -3 1180.60 162.317   7
 -16   0  -2 3483.90 334.687  10
  16   0  -2 3320.54 274.165   9
  16   0  -2 3450.97 281.407   4
 -16   0  -2 3417.21 275.367   7
  16   0  -2 3319.12 245.351   2
 -16   0  -1 122.534 75.3532  10
  16   0  -1 48.5599 51.0030   9
  16   0  -1 113.766 50.9040   2
  16   0  -1 182.720 75.2150   4
 -16   0  -1 339.935 90.8211   7
 -16   0   0 2709.75 301.310  10
  16   0   0 2911.70 257.298   9
  16   0   0 2997.30 254.561   4
 -16   0   0 3041.46 248.618   7
  16   0   0 3115.55 213.826   2
 -16   0   1 242.991 113.312  10
  16   0   1 203.668 63.8765   2
  16   0   1 188.920 77.0800   9
  16   0   1 156.546 60.0446   4
 -16   0   1 36.8424 48.5949   7
 -16   0   2 2604.28 297.365  10
  16   0   2 3061.15 262.148   9
  16   0   2 2810.22 237.820   4
 -16   0   2 2945.34 241.656   7
  16   0   2 3219.44 199.351   2
 -16   0   3 1124.97 208.337  10
  16   0   3 1480.66 179.637   9
  16   0   3 1329.43 159.610   4
 -16   0   3 1087.61 139.911   7
 -16   0   4 3209.15 339.443  10
  16   0   4 3317.06 268.441   9
  16   0   4 3293.61 245.011   4
 -16   0   4 2592.21 223.817   7
 -16   0   5 543.787 158.398  10
  16   0   5 409.874 101.923   9
  16   0   5 300.184 71.8665   4
 -16   0   5 251.194 85.2573   7
  16   0   6 6054.27 368.920   9
 -16   0   6 5731.02 336.656   7
  16   0   7-105.120 58.2258   9
  16   1  -7 113.601 63.3229   9
  16   1  -6 2389.74 238.754   9
  16   1  -5 23.1024 46.3403   9
  16  -1  -5 93.0394 80.1624   2
  16   1  -5-74.8923 66.9788   4
 -16   1  -5 38.3204 62.2670   7
 -16  -1  -4 4549.06 274.002   5
  16   1  -4 4387.62 327.760   9
  16   1  -4 4795.76 348.557   4
 -16   1  -4 4498.48 331.794   7
  16  -1  -4 4301.01 311.251   2
  16   1  -4 4665.44 308.165   2
 -16   1  -3 175.708 86.7414  10
 -16  -1  -3 87.3962 77.1726  10
 -16  -1  -3 50.2584 27.8425   5
  16  -1  -3 243.554 84.3578   2
  16   1  -3 182.411 85.6843   9
  16   1  -3 195.796 73.7395   2
  16   1  -3 187.586 75.6080   4
 -16   1  -3 251.456 91.7578   7
 -16  -1  -2 4357.83 257.213   5
 -16   1  -2 5163.74 412.902  10
 -16  -1  -2 4672.52 384.726  10
  16   1  -2 4342.37 323.578   9
  16   1  -2 4525.83 329.814   4
 -16   1  -2 4242.50 308.553   7
  16  -1  -2 4314.35 295.299   2
  16   1  -2 4563.51 275.796   2
 -16   1  -1 670.869 158.187  10
 -16  -1  -1 435.998 117.965  10
 -16  -1  -1 763.347 101.125   5
  16  -1  -1 628.175 109.821   2
  16   1  -1 797.529 139.326   9
  16   1  -1 713.176 102.738   2
  16   1  -1 723.732 128.385   4
 -16   1  -1 797.423 132.743   7
 -16  -1  -1 864.151 137.513   7
 -16  -1   0 5806.48 298.456   5
 -16   1   0 5937.57 444.822  10
 -16  -1   0 6144.98 436.597  10
  16   1   0 5756.63 372.414   9
  16  -1   0 6049.00 369.011   4
  16   1   0 5148.27 346.163   4
 -16   1   0 5768.68 364.160   7
 -16  -1   0 5572.25 343.800   7
  16  -1   0 5041.39 307.743   2
  16   1   0 5842.74 284.906   2
 -16   1   1 634.352 162.638  10
 -16  -1   1 877.085 169.618  10
  16  -1   1 854.786 114.531   2
 -16  -1   1 846.326 109.370   5
  16   1   1 667.958 128.733   9
  16  -1   1 966.761 141.319   4
  16   1   1 738.937 130.640   4
 -16   1   1 705.469 125.754   7
 -16  -1   1 734.662 120.640   7
 -16  -1   2 4360.06 377.529  10
 -16   1   2 4569.48 390.824  10
  16  -1   2 4289.51 307.976   9
  16   1   2 3985.00 307.869   9
  16  -1   2 4001.84 287.573   4
  16   1   2 4329.63 304.838   4
  16  -1   2 4126.55 257.583   2
 -16   1   2 4684.40 315.443   7
 -16  -1   2 3810.80 270.434   7
 -16  -1   2 4371.61 269.015   5
 -16  -1   3 69.9629 70.6775  10
 -16   1   3 412.870 130.317  10
  16  -1   3 154.847 59.3402   2
 -16  -1   3 228.837 67.3094   5
  16  -1   3 306.183 95.1026   9
  16   1   3 154.664 72.6158   9
  16  -1   3 85.1178 43.7245   4
  16   1   3 196.400 78.0105   4
 -16   1   3 241.548 81.3124   7
 -16  -1   3 215.247 75.5364   7
 -16  -1   4 3631.65 357.002  10
 -16   1   4 3949.13 369.794  10
  16  -1   4 3424.64 271.792   9
  16   1   4 3602.27 288.122   9
  16  -1   4 3529.51 256.029   4
  16   1   4 3629.44 267.067   4
 -16   1   4 3485.87 275.065   7
 -16  -1   4 3561.14 249.026   7
  16   1   4 3871.60 239.402   3
 -16  -1   4 3700.66 284.490   5
  16   1   5-62.2526 42.9623   3
 -16   1   5-155.994 119.108  10
  16  -1   5 116.086 60.9225   9
  16   1   5 111.065 76.1696   9
  16  -1   5 40.0250 39.1265   4
  16   1   5 38.1308 50.7265   4
 -16   1   5 69.0425 72.9530   7
 -16  -1   5-6.96618 45.6168   7
  16  -1   6 2029.45 206.241   9
  16   1   6 2353.86 231.170   9
 -16   1   6 2411.02 228.786   7
  16   1   7 126.739 68.1928   9
 -16   1   7 68.7942 63.1055   7
 -16  -2  -6 323.372 95.9608   5
  16   2  -6 373.085 103.107   9
 -16  -2  -5 82.4169 62.3282   5
  16   2  -5 373.402 115.384   9
 -16  -2  -4 78.0601 57.2444   5
  16  -2  -4 215.100 92.5486   2
  16   2  -4 197.812 75.9616   9
  16   2  -4 92.3719 69.0774   4
 -16   2  -4 152.563 87.5910   7
 -16   2  -3 287.549 110.310  10
  16  -2  -3 126.804 66.9144   2
 -16  -2  -3 261.605 85.6710   5
  16   2  -3 274.889 87.1517   9
  16   2  -3 255.754 90.5780   4
 -16   2  -3 142.363 69.2894   7
 -16   2  -2 307.079 127.018  10
 -16  -2  -2 294.962 109.211  10
  16  -2  -2 320.937 102.276   2
 -16  -2  -2 275.895 81.2855   5
  16   2  -2 222.198 80.7969   9
  16   2  -2 335.542 103.046   4
 -16   2  -2 164.814 74.5520   7
 -16   2  -1 650.395 143.210  10
 -16  -2  -1 657.984 142.242  10
  16  -2  -1 580.875 118.620   2
 -16  -2  -1 685.393 119.503   5
  16   2  -1 878.468 150.948   9
  16   2  -1 677.735 129.448   4
 -16   2  -1 798.518 145.094   7
 -16   2   0 182.241 103.467  10
 -16  -2   0-55.2132 106.340  10
  16  -2   0 145.659 75.6950   2
 -16  -2   0 68.0842 61.9766   5
  16   2   0 41.6673 59.6889   9
  16   2   0-32.7344 50.1804   4
 -16   2   0 66.8057 52.8512   7
 -16   2   1 783.504 160.140  10
 -16  -2   1 687.567 150.383  10
  16  -2   1 557.848 107.184   2
 -16  -2   1 612.411 109.642   5
  16   2   1 741.982 144.099   9
  16   2   1 640.427 121.761   4
 -16   2   1 670.336 132.924   7
 -16   2   1 757.023 133.690   6
  16  -2   2 463.854 99.8767   2
 -16   2   2 56.6792 73.4083  10
 -16  -2   2 191.188 96.0453  10
 -16  -2   2 185.852 75.2971   5
  16   2   2 311.398 89.5144   9
  16   2   2 246.187 83.3228   4
 -16   2   2 423.509 112.927   7
 -16   2   2 292.346 97.8793   6
  16  -2   3 132.637 62.0439   2
 -16  -2   3 157.991 71.8894  10
 -16   2   3 97.7401 84.4814  10
 -16  -2   3 120.316 61.7900   5
  16   2   3 118.985 87.8800   9
  16   2   3 112.055 70.7063   4
 -16   2   3 41.2932 70.4807   7
 -16   2   3 90.2339 72.4594   6
  16  -2   4 26.3132 48.6187   2
 -16  -2   4 239.152 125.377  10
 -16   2   4 109.485 99.4561  10
 -16  -2   4 163.919 80.8726   5
  16   2   4 174.293 80.2460   9
  16  -2   4 85.2497 49.8907   4
  16   2   4 229.652 84.9792   4
 -16   2   4 161.546 96.2993   7
  16  -2   5 205.877 74.2925   2
 -16  -2   5 1.12473 78.6200  10
 -16  -2   5 88.9638 79.8492   5
  16  -2   5 121.514 57.8824   9
  16   2   5 42.5800 56.3299   9
  16   2   5 197.931 73.2727   4
 -16   2   5 197.846 91.6289   7
  16   2   6 399.580 97.1629   3
 -16  -2   6 479.869 141.652   5
  16  -2   6 501.010 101.181   9
 -16  -3  -5 54.0758 73.3733   5
 -16  -3  -4 2224.27 235.543   5
 -16  -3  -3-68.3343 61.7466   5
 -16   3  -3-29.1837 68.1490   6
 -16   3  -2 1120.33 191.226  10
  16  -3  -2 936.230 164.329   2
 -16  -3  -2 1051.71 167.293   5
  16   3  -2 806.858 140.340   9
 -16   3  -2 617.516 117.446   6
 -16   3  -1 125.165 71.4123  10
 -16  -3  -1 277.826 94.9960  10
  16  -3  -1 131.167 78.3876   2
 -16  -3  -1 106.001 55.5317   5
  16   3  -1 281.113 92.9227   9
 -16   3  -1 128.351 55.7490   6
 -16  -3   0 1875.93 219.917  10
 -16   3   0 2087.60 256.258  10
  16   3   0 2004.03 230.333   9
 -16  -3   0 1686.82 209.657   5
  16   3   0 2225.53 236.947   4
  16  -3   0 1995.85 219.598   2
 -16   3   0 2054.21 218.549   6
  16  -3   1 356.652 109.678   2
 -16   3   1 353.811 122.454  10
 -16  -3   1 289.781 101.354  10
 -16  -3   1 300.412 103.529   5
  16   3   1 331.012 108.188   4
 -16   3   1 343.077 103.253   6
  16  -3   2 731.270 139.905   2
 -16   3   2 564.929 140.348  10
 -16  -3   2 642.903 148.744  10
 -16  -3   2 691.938 146.928   5
  16   3   2 854.887 150.764   4
  16  -3   3 72.9775 65.3778   2
 -16  -3   3-119.194 94.0939  10
 -16   3   3 154.985 110.264  10
 -16  -3   3-119.021 88.6231   5
  16   3   3 21.7838 83.3291   4
  16  -3   4 1817.65 211.404   2
 -16  -3   4 1845.86 242.703  10
 -16  -3   4 2420.02 271.306   5
  16   3   4 2011.65 226.882   4
  16  -3   5 92.3889 71.9989   2
 -16  -3   5 42.7988 71.8889  10
 -16  -3   5 303.631 129.394   5
  16   3   5 153.898 89.6351   4
  17   0  -5 88.5690 66.1953   2
  17   0  -4-88.6140 76.7268   9
  17   0  -4-25.5715 51.6803   2
 -17   0  -3-4.68032 55.8145  10
  17   0  -3 55.5954 52.1172   9
  17   0  -3 18.3285 50.5994   2
  17   0  -3-108.519 64.8585   4
 -17   0  -3 83.1485 87.6491   7
 -17   0  -2 1.71505 70.6979  10
  17   0  -2 49.5723 76.8495   9
  17   0  -2 115.345 63.4829   2
  17   0  -2 73.6910 70.0385   4
 -17   0  -2 70.9593 71.4026   7
 -17   0  -1 187.834 116.930  10
  17   0  -1 209.280 88.9476   9
  17   0  -1 4.04438 45.6007   2
  17   0  -1 19.1363 44.8715   4
 -17   0  -1 56.1599 63.9703   7
 -17   0   0 138.367 110.335  10
  17   0   0 108.840 74.1410   9
  17   0   0 81.5945 48.1835   2
  17   0   0-81.6141 70.4994   4
 -17   0   0-11.3764 43.9877   7
 -17   0   1-126.686 108.649  10
  17   0   1 131.372 77.0752   9
  17   0   1 31.8961 49.0641   2
  17   0   1-93.2766 62.1691   4
 -17   0   1-51.2506 47.5545   7
 -17   0   2-5.18803 94.1743  10
  17   0   2 100.602 78.8069   9
  17   0   2 100.929 75.8671   4
 -17   0   2-51.2070 65.6461   7
 -17   0   3 18.5869 92.5632  10
  17   0   3 119.131 86.3250   9
  17   0   3-71.9067 48.3659   4
 -17   0   3 31.3770 65.3162   7
 -17   0   4 57.6595 79.5050  10
  17   0   4-41.2458 56.0554   9
  17   0   4-34.8630 50.4000   4
 -17   0   4 61.0589 70.9400   7
  17   0   5-59.3607 60.4817   9
  17   0   5 41.3582 53.6527   4
  17   0   6 36.8866 47.3539   9
 -17   0   6 34.3895 49.3985   7
  17   1  -4 1719.08 213.276   9
  17  -1  -4 1195.58 169.594   2
  17   1  -4 1251.41 159.957   2
 -17   1  -3 411.119 137.962  10
  17   1  -3 428.346 106.099   9
  17  -1  -3 339.200 100.951   2
  17   1  -3 293.667 72.0970   2
  17   1  -3 461.320 117.040   4
 -17   1  -3 357.227 109.768   7
 -17   1  -2 1004.59 183.262  10
 -17  -1  -2 1340.41 208.846  10
  17  -1  -2 1110.35 166.763   4
  17  -1  -2 939.832 141.000   2
  17   1  -2 1261.73 178.832   9
  17   1  -2 1129.37 137.823   2
  17   1  -2 1222.63 179.333   4
 -17   1  -2 926.447 151.653   7
 -17   1  -1 1359.54 227.091  10
 -17  -1  -1 1261.55 202.689  10
  17  -1  -1 1248.91 160.179   2
  17   1  -1 1659.82 207.110   9
  17  -1  -1 1260.19 171.595   4
  17   1  -1 1205.31 167.417   4
 -17   1  -1 1630.35 192.385   7
 -17  -1  -1 1338.62 175.018   7
  17   1  -1 1434.78 147.811   2
 -17   1   0 2263.34 282.578  10
 -17  -1   0 1782.11 245.428  10
  17   1   0 1738.94 208.146   9
  17  -1   0 2134.58 219.503   4
  17   1   0 2767.96 256.392   4
 -17   1   0 2151.75 224.083   7
 -17  -1   0 2088.73 208.904   7
  17  -1   0 2073.66 193.764   2
 -17   1   1 1741.56 242.873  10
 -17  -1   1 1261.77 216.691  10
  17   1   1 1545.21 195.992   9
  17  -1   1 1421.79 181.075   4
  17   1   1 1403.27 176.645   4
  17  -1   1 1450.43 154.933   2
 -17   1   1 1641.19 197.932   7
 -17  -1   1 1363.09 166.209   7
 -17   1   2 1195.10 212.238  10
 -17  -1   2 1096.47 199.977  10
  17  -1   2 1074.02 133.112   2
  17  -1   2 1056.04 162.240   9
  17   1   2 999.083 158.829   9
  17  -1   2 1108.01 154.016   4
  17   1   2 896.553 150.102   4
 -17   1   2 1141.72 165.480   7
 -17  -1   2 887.296 136.723   7
 -17  -1   3 418.155 134.607  10
 -17   1   3 426.120 139.353  10
  17  -1   3 466.253 109.654   9
  17   1   3 529.043 119.178   9
  17  -1   3 546.547 115.583   4
  17   1   3 360.196 91.9050   4
 -17   1   3 211.267 75.9527   7
 -17  -1   3 453.290 103.322   7
 -17  -1   4 1189.28 206.891  10
  17  -1   4 1667.22 195.203   9
  17   1   4 1386.96 187.920   9
  17  -1   4 1409.52 164.170   4
  17   1   4 1258.21 158.652   4
 -17   1   4 1297.40 174.104   7
 -17  -1   4 1379.67 161.348   7
  17  -1   5 992.340 159.006   9
  17   1   5 1130.90 164.221   9
  17   1   5 1128.47 157.270   4
 -17   1   5 1084.71 161.941   7
  17  -1   6 468.030 108.810   9
 -17   1   6 727.671 136.562   7
 -17  -2  -4 1221.36 160.943   5
 -17  -2  -3 4391.77 301.456   5
  17  -2  -3 4581.58 339.157   2
 -17   2  -2 1173.02 199.501  10
 -17  -2  -2 967.327 173.507  10
  17  -2  -2 1164.88 159.307   2
 -17  -2  -2 710.359 124.524   5
  17   2  -2 875.142 160.137   9
 -17  -2  -1 5624.13 342.821   5
 -17   2  -1 6299.05 467.025  10
 -17  -2  -1 6028.80 432.534  10
  17   2  -1 5605.04 392.727   9
  17   2  -1 5753.97 390.727   4
 -17   2  -1 5358.28 382.206   7
  17  -2  -1 5364.96 353.651   2
 -17  -2   0 3029.58 248.473   5
 -17  -2   0 3441.26 324.376  10
 -17   2   0 2920.66 314.022  10
  17   2   0 3064.00 282.774   9
  17   2   0 3416.44 290.139   4
 -17   2   0 3169.68 285.183   7
  17  -2   0 2934.03 251.871   2
 -17  -2   1 5395.25 342.051   5
 -17   2   1 5228.15 428.601  10
 -17  -2   1 5357.57 412.655  10
  17   2   1 5781.53 396.725   9
  17   2   1 5950.50 389.126   4
  17  -2   1 4945.53 329.299   2
 -17   2   1 5283.63 373.134   7
 -17   2   2 762.526 169.905  10
 -17  -2   2 800.723 157.437  10
  17  -2   2 1027.89 151.134   2
 -17  -2   2 1026.09 154.517   5
  17   2   2 1015.07 160.689   4
 -17   2   2 1081.53 167.029   7
 -17  -2   3 4886.66 406.352  10
  17  -2   3 4487.74 315.798   4
  17   2   3 4465.40 327.879   4
  17  -2   3 4233.76 297.854   2
 -17  -2   3 4397.34 330.560   5
 -17  -2   4 939.380 179.492  10
 -17  -2   4 1111.68 173.079   5
  17  -2   4 925.667 149.592   9
  17  -2   4 915.604 134.277   4
  17   2   4 919.003 151.544   4
  17  -2   5 1757.27 203.772   9
  17   2   5 1858.00 200.053   4
 -17  -3  -3 2255.16 239.742   5
 -17  -3  -2 607.194 130.761   5
 -17   3  -2 811.690 140.424   6
 -17  -3  -1 398.553 119.193  10
 -17  -3  -1 572.546 132.261   5
 -17   3  -1 440.072 110.586   6
 -17  -3   0 724.852 137.503  10
  17  -3   0 987.467 171.098   2
 -17  -3   0 749.402 140.301   5
  17  -3   1 548.026 127.184   2
 -17  -3   1 339.111 114.915  10
 -17  -3   1 236.425 82.7901   5
  17  -3   2 530.019 118.671   2
 -17  -3   2 599.622 140.532  10
 -17  -3   2 325.014 105.285   5
 -17  -3   3 2491.65 273.691  10
 -17  -3   3 2362.77 264.219   5
  17  -3   3 3002.31 274.029   2
  18   0  -4 1361.98 178.837   2
  18   0  -3 5854.79 363.954   2
  18   0  -2 2588.84 228.510   2
 -18   0  -1 6413.88 493.624  10
  18   0  -1 6718.40 425.094   4
 -18   0  -1 5927.68 390.303   7
  18   0  -1 6485.37 356.390   2
 -18   0   0 581.506 148.687  10
  18   0   0 338.013 98.5020   4
 -18   0   0 594.232 123.265   7
 -18   0   1 5872.81 474.289  10
  18   0   1 6189.58 409.307   9
  18   0   1 6665.21 409.872   4
 -18   0   1 5688.66 371.404   7
  18   0   2 2729.73 264.268   9
  18   0   2 2607.60 250.454   4
 -18   0   2 2359.05 229.616   7
  18   0   3 5089.52 347.132   4
 -18   0   3 5867.43 367.629   7
  18   0   4 1366.16 174.671   4
 -18   0   4 1271.38 172.507   7
 -18   0   5 1413.62 174.157   7
  18  -1  -3 1524.67 187.934   2
  18   1  -3 1628.05 179.785   2
 -18  -1  -2 1833.30 256.943  10
  18  -1  -2 1446.87 179.596   2
 -18  -1  -1 1138.89 203.312  10
  18  -1  -1 1083.97 151.480   2
  18  -1  -1 1499.78 192.892   4
 -18  -1   0 712.955 165.748  10
  18  -1   0 724.578 119.514   2
  18  -1   0 680.115 136.354   4
  18   1   0 423.918 115.876   4
 -18   1   0 400.672 103.478   7
 -18  -1   0 681.961 132.657   7
 -18  -1   1 1385.75 217.154  10
  18  -1   1 1296.14 155.376   2
  18  -1   1 1312.04 183.325   4
  18   1   1 1453.57 191.055   4
 -18   1   1 1431.05 189.655   7
 -18  -1   1 1057.17 152.740   7
  18  -1   2 1500.83 186.330   4
  18   1   2 1605.67 201.934   4
 -18   1   2 1807.62 210.685   7
 -18  -1   2 1173.06 164.251   7
  18  -1   3 1902.70 201.837   4
  18   1   3 1995.79 218.478   4
 -18   1   3 1717.81 205.533   7
 -18  -1   3 1846.76 192.853   7
  18  -1   4 1516.17 177.919   4
  18   1   4 1333.79 172.620   4
 -18  -1   4 1414.85 170.817   7
 -18  -2  -2 432.282 112.259  10
  18  -2  -2 542.598 123.790   2
 -18  -2  -1 131.737 78.5760  10
  18  -2  -1-15.0152 58.3531   2
 -18  -2   0 267.576 112.573  10
  18  -2   0 104.718 70.6784   2
 -18  -2   1 215.679 133.191  10
  18  -2   1 48.7553 57.9530   2
  18  -2   2 267.688 86.8339   2
  18  -2   2 360.838 108.171   4
  18  -2   3 644.253 126.748   4
  19   0  -3-87.6815 61.3927   2
  19   0  -2 133.197 65.5646   2
  19   0   3-41.0083 49.3456   4
  19  -1  -2 1864.27 205.266   2
  19  -1  -1 150.514 77.1352   2
  19  -1   0 1623.73 181.590   2
 -19  -1   1 121.963 69.4804   7
 -19  -1   2 1760.54 198.733   7
  19  -1   3 275.408 84.4467   4
   0   0   0    0.00    0.00   0
TITL AS200818 in Pca2(1)
REM Pca2(1) (#29, found as Pc2(1)b in cab setting)
CELL 0.71073  14.339970   5.230653   9.777834  90.0000  90.0000  90.0000
ZERR    2.00   0.000368   0.000131   0.000285   0.0000   0.0000   0.0000
LATT -1
SYMM -x,-y, z+1/2
SYMM  x+1/2,-y, z
SYMM -x+1/2, y, z+1/2
SFAC C H N O Co
UNIT 16 36 4 24 4

TREF
HKLF 4
END
;
_shelx_hkl_checksum              97527

