@<TRIPOS>MOLECULE
IDA
   14    13     1     0     0
SMALL
bcc


@<TRIPOS>ATOM
      1 C1B         -1.9140    -6.8890   -23.4500 c          1 IDA       0.907600
      2 O1          -2.6210    -4.5320   -20.5050 o          1 IDA      -0.870800
      3 C1A         -1.4120    -4.7730   -20.2510 c          1 IDA       0.907600
      4 N1          -1.8780    -7.1140   -21.0030 n7         1 IDA      -0.811200
      5 H1          -1.9230    -7.6880   -20.4440 hn         1 IDA       0.383800
      6 C2B         -1.5210    -7.7620   -22.2690 c3         1 IDA       0.062800
      7 H2BA        -1.9730    -8.6180   -22.3340 h1         1 IDA      -0.007300
      8 H2BB        -0.5650    -7.9250   -22.2910 h1         1 IDA      -0.007300
      9 O2          -2.6650    -5.9100   -23.2540 o          1 IDA      -0.870800
     10 C2A         -0.8600    -6.1560   -20.5220 c3         1 IDA       0.062800
     11 H2AA        -0.1550    -6.0890   -21.1860 h1         1 IDA      -0.007300
     12 H2AB        -0.4650    -6.5020   -19.7070 h1         1 IDA      -0.007300
     13 O3          -0.6210    -3.9250   -19.8260 o          1 IDA      -0.870800
     14 O4          -1.4500    -7.2400   -24.5650 o          1 IDA      -0.870800
@<TRIPOS>BOND
     1     1     6 1   
     2     1     9 1   
     3     1    14 1   
     4     2     3 1   
     5     3    10 1   
     6     3    13 1   
     7     4     5 1   
     8     4     6 1   
     9     4    10 1   
    10     6     7 1   
    11     6     8 1   
    12    10    11 1   
    13    10    12 1   
@<TRIPOS>SUBSTRUCTURE
     1 IDA         1 TEMP              0 ****  ****    0 ROOT
